# total energy = -222.11792030 eV
 
CRYSTAL
PRIMVEC
-0.001190 6.469611 6.118646 
6.244372 -0.014201 6.133227 
4.172520 4.332135 -0.020096 
PRIMCOORD
36 1
Li	      2.14167      8.60986      6.08132         0.034128     -0.016271     -0.022623
Li	      4.20174      8.48931      8.06274         0.007891      0.059394      0.054558
Li	      8.29729      4.34831      8.16811         0.020096     -0.017097      0.024010
Li	      4.19388      2.16586      6.14378         0.003289      0.042070     -0.034573
Li	      4.12675      8.65164      4.15146         0.070211     -0.076732     -0.009336
Li	      2.11430      6.47257      4.12326        -0.058596      0.068212     -0.028545
Li	      6.19840      8.68173      6.13528        -0.063942     -0.031536     -0.027646
Li	      4.10392      6.58316      6.07460         0.005004      0.078622      0.078049
Li	      8.30944      8.63144      8.12208         0.013935     -0.010608     -0.092396
Mn	      2.11743      6.48091      8.08160         0.055246     -0.062367      0.203287
Mn	      8.33593     10.71892     10.19401        -0.081344      0.102733     -0.061662
Mn	      6.25873      8.52731     10.23064        -0.158594      0.285185      0.083533
V	      2.10305      2.26913      4.13786         0.028404      0.087598      0.061590
Fe	      4.16254     10.61479      6.12040         0.054342      0.267378     -0.048685
Fe	      6.15824      2.30184      8.11219        -0.051016     -0.164834      0.121883
Fe	      4.09380      4.44637      4.14255         0.401144     -0.054945     -0.087963
Fe	      6.37533      6.42789      8.12447        -0.003639     -0.140092     -0.149708
Cu	      6.28051      4.30345      6.14873         0.026366      0.052091     -0.084493
O	      2.00081      2.21064      2.24598        -0.058242     -0.002879     -0.221885
O	      4.28930      4.47250      2.02242        -0.033766      0.043662      0.086992
O	      4.14339      2.07031      4.06948         0.067908     -0.019970     -0.029719
O	      6.15804      4.45495      3.94105         0.084798     -0.049794     -0.157387
O	      6.24149      1.99995      6.10780        -0.001869     -0.189152     -0.185693
O	      8.30579      4.30106      6.01268         0.104059     -0.000299     -0.081520
O	      2.21941      4.20043      4.08629        -0.450947     -0.021475      0.022328
O	      4.22757      6.50314      4.02944        -0.032947     -0.013911     -0.091360
O	      4.34128      4.28775      5.98821        -0.105366      0.067281      0.328852
O	      6.24340      6.52420      5.98868         0.030942      0.130892      0.161352
O	      6.24157      4.33032      8.12339         0.066866      0.020074      0.241499
O	      8.34287      6.45344      8.15558         0.039226     -0.036167     -0.063516
O	      2.04506      6.43931      6.20872         0.049077     -0.027345     -0.071990
O	      4.13739      8.76059      6.14257        -0.016765     -0.364254     -0.028417
O	      4.11954      6.41771      8.22731         0.012934      0.057236      0.146568
O	      6.23088      8.43689      8.28722        -0.006405      0.119323     -0.062020
O	      6.30503      6.39968     10.18110        -0.175385     -0.095660      0.040134
O	      8.15521      8.77759     10.21164         0.122958     -0.086360     -0.013499
