# total energy = -225.33678287 eV
 
CRYSTAL
PRIMVEC
0.005032 6.375486 6.335162 
6.307539 0.019735 6.320307 
4.219696 4.254959 -0.001469 
PRIMCOORD
36 1
Li	      6.23275      0.05421      6.21140        -0.057546      0.047797     -0.002472
Li	      8.38447      8.62251     12.45858        -0.025149      0.046484      0.012153
Li	      8.57996     10.58355     10.69648         0.034467     -0.012745      0.063688
Li	      6.34197      2.04038      4.34971         0.014683      0.019898      0.029850
Li	      4.25647      2.07310      6.24931         0.093011     -0.048436     -0.016542
Li	      6.36339      4.21905      6.26989         0.013009     -0.067533     -0.056683
Li	     10.43532      8.67648     10.60069         0.019522     -0.006610      0.002631
Li	      6.31821      8.46974      6.36888         0.015210      0.030113      0.018751
Li	      6.35621      6.38379      8.57319        -0.000789     -0.006683      0.062939
Mn	      6.34434      6.39870      4.26321        -0.072591      0.002664     -0.020890
Mn	      4.20598      4.21166      4.27255         0.051242     -0.009708      0.236020
Mn	      8.32902      6.40182     10.62785        -0.005572      0.043568     -0.093071
V	      4.25893      6.39156      6.36288         0.346305      0.013144      0.125709
Fe	      2.09624      6.35752      8.39204        -0.124876      0.138970      0.187926
Fe	      4.32226      8.50071      8.39532        -0.091412     -0.049055      0.095394
Fe	      6.28952      2.16911      8.18748        -0.002208     -0.066647      0.185994
Fe	      8.32962      4.30343      8.23260         0.052233      0.061557      0.199346
Fe	      8.44759      8.51436      8.48972         0.004960     -0.068511     -0.068908
O	      2.07459      2.13829      2.22025         0.079648     -0.054652     -0.248402
O	      4.22904      4.24862      2.03828         0.000446      0.004036     -0.023156
O	      4.24802      2.25058      4.10899         0.012983      0.178972      0.023276
O	      6.14853      4.39771      4.11361        -0.024149     -0.192560     -0.036949
O	      6.32068      2.15548      6.37366        -0.010239     -0.015675     -0.306866
O	      8.40433      4.28155      6.39659        -0.001724      0.024133     -0.294980
O	      2.23404      4.18809      4.14089        -0.015223      0.189024     -0.014389
O	      4.04290      6.22356      4.27458        -0.037266      0.065591      0.029430
O	      4.20958      4.36632      6.49051        -0.048927      0.206162     -0.126013
O	      6.17665      6.40490      6.18824        -0.510170      0.012332      0.390992
O	      6.33648      4.16428      8.47575        -0.156937      0.087132      0.037434
O	      8.47781      6.37129      8.46960        -0.072370      0.083107     -0.037927
O	      2.22546      6.39065      6.41221         0.304661     -0.005556     -0.079824
O	      4.20989      8.39408      6.48178         0.007184     -0.283946     -0.414362
O	      4.15130      6.42098      8.45318         0.085813     -0.093339     -0.049597
O	      6.32321      8.62350      8.44183         0.104711     -0.108954     -0.012779
O	      6.47507      6.37370     10.57293        -0.014158     -0.039748      0.023136
O	      8.43848      8.50018     10.41270         0.031218     -0.124325      0.179140
