# total energy = -215.02635524 eV
 
CRYSTAL
PRIMVEC
-0.022271 6.232217 6.266168 
6.171545 -0.017751 6.261640 
4.101958 4.139690 0.000406 
PRIMCOORD
36 1
Li	      4.12800      4.13059      0.12363         0.060368      0.015215      0.073690
Li	      6.11272     10.30837      8.32931         0.017881     -0.024198      0.030148
Li	      4.14244      8.32406      8.33145         0.024969     -0.037314     -0.009011
Li	      4.14294      6.16285     10.36363        -0.006272     -0.024624     -0.058896
Li	      6.19648      8.22568     10.41306         0.050205     -0.042278     -0.028957
Li	      4.03474      6.11294      2.07616        -0.012487      0.065388      0.007620
Li	      8.16518      6.27466     10.45446        -0.021578      0.030641      0.071860
Li	      4.02398      6.28558      6.36436         0.016934      0.060384      0.036007
Li	      8.17216      8.32328      8.42461        -0.024357     -0.001312      0.033699
Mn	      2.07463      8.22152      6.25948         0.041478      0.018114     -0.026278
Mn	      6.13421      4.09817      6.24727        -0.192828      0.292020     -0.050511
Mn	      2.00092      4.25361      6.31219         0.110512     -0.020507     -0.029312
Mn	      6.09967      6.23635      8.39862        -0.084172      0.233810     -0.145564
V	      2.03647      2.02580      4.04858        -0.048804      0.056025      0.094541
Co	      8.20624      6.18030      6.26331        -0.135222      0.013900     -0.049700
Cu	      2.12705      4.18702      2.07671        -0.052496     -0.076532      0.057920
Ni	      4.08378      4.15288      4.11154        -0.032254      0.004197      0.068724
Ni	     10.22227      8.30514     10.44621         0.043026      0.003305     -0.097061
O	      2.08463      2.14385      2.13229        -0.023899     -0.018594     -0.099380
O	      4.05322      4.16339      2.13805         0.080157      0.007463     -0.153608
O	      3.92610      2.08870      4.31249         0.067464     -0.064533      0.087659
O	      6.11703      4.22902      4.26628         0.109422     -0.224106      0.039633
O	      6.05868      2.19782      6.25860        -0.127023     -0.157882     -0.023767
O	      8.05875      4.16759      6.15799         0.043308     -0.047002      0.025720
O	      2.03384      4.08193      4.33268        -0.018051      0.111672      0.016088
O	      4.30039      6.24456      4.21808         0.036034      0.000137     -0.028988
O	      4.12611      3.99921      6.23054         0.106210     -0.109195      0.039974
O	      6.23934      6.11629      6.26504         0.116093     -0.071031      0.064083
O	      6.21471      4.25484      8.24145        -0.077417     -0.091036      0.010522
O	      8.12583      6.17291      8.19881        -0.012274      0.007594     -0.141246
O	      2.03953      6.27929      6.29814         0.008219      0.093049      0.024614
O	      4.14326      8.33429      6.24029        -0.036070      0.049665      0.050268
O	      4.26477      6.18861      8.33625         0.073630     -0.004705      0.020136
O	      6.16063      8.16538      8.26015         0.020979     -0.157556      0.206616
O	      6.17441      6.18799     10.23231         0.034499      0.114527     -0.126771
O	      8.23393      8.24206     10.61515        -0.156185     -0.004702      0.009526
