# total energy = -90.62309220 eV
 
CRYSTAL
PRIMVEC
1.962740 3.965241 1.962413 
4.010109 -4.020320 0.025815 
3.984135 -0.000132 -3.983191 
PRIMCOORD
16 1
Li	      3.80905      1.82331      1.86259        -0.453848      1.022680      0.192933
Li	      3.82184      0.02560      0.03030        -0.698337     -0.079318     -0.337045
Li	      3.86927     -1.87696     -1.90126        -0.479349     -0.310715     -0.464216
Li	      5.70218     -0.08027     -1.91385        -0.018750      0.647366     -0.628394
Mn	      9.54836     -0.05317     -1.90589         5.704512     -0.550065     -0.004200
Mn	      5.75710     -1.95656      0.00070         1.543747     -4.050603      2.605916
Ni	      7.65765     -0.05323     -0.01591         1.542779      0.277817      2.201324
Ni	      7.64778     -1.95673     -1.88958         1.754211     -2.030887     -1.573552
O	      5.73297     -0.16081      0.09127        -1.081722      1.995292      0.658694
O	      5.75741     -1.95326     -1.75802        -1.003953     -0.326142     -2.534252
O	      3.66607      1.89979     -0.02460        -0.113756      0.965377      1.292907
O	      3.81383     -0.00375     -2.05575        -1.170323      0.250043     -0.496236
O	      7.78980     -0.05027     -1.90579        -1.360280      1.398114     -1.369935
O	      3.93011     -2.06405      0.00974        -2.410683     -0.518925      0.297756
O	      5.72330      2.01039     -2.02121        -0.001079      1.327086     -0.119782
O	      1.81668      0.10736      0.00033        -1.753167     -0.017119      0.278082
