# total energy = -213.81534039 eV
 
CRYSTAL
PRIMVEC
0.027870 6.336486 6.400388 
6.155311 0.046414 6.380882 
4.109680 4.217710 0.025398 
PRIMCOORD
36 1
Li	     10.22730     10.56054     12.72480         0.046925      0.056031     -0.036950
Li	      8.27672      8.52612     12.77302        -0.055491     -0.042757      0.002027
Li	      6.12388      2.27964      8.55472         0.035011     -0.063016      0.009605
Li	      8.09663      4.34507      8.57332         0.080940      0.053675      0.092456
Li	      1.99243      2.26319      4.31638         0.020248      0.047748      0.039414
Li	      6.20147      4.26796      6.56407        -0.011970      0.029489     -0.014743
Li	      2.09592      6.28334      4.22455        -0.065924     -0.037040      0.035688
Li	      6.13455      8.38107      6.31453         0.027035      0.016747     -0.175923
Li	      6.26216      6.22874      8.51460        -0.016662      0.030379     -0.035410
Mn	      8.20613      4.24229      4.29677        -0.038037     -0.029025      0.282196
Mn	      6.21905      8.46214     10.71491        -0.038976     -0.068418      0.384920
Mn	      4.02593      4.31927      4.30247         0.001297      0.014399      0.169669
Mn	      8.18127      6.37361      6.44275        -0.188777      0.054470     -0.224798
V	      1.98890      0.11314      1.99310        -0.108139      0.217199     -0.462135
Co	      4.25281      6.36409      6.42764        -0.127359      0.076674     -0.416297
Cu	      4.16601      8.48427      8.33847         0.031669      0.058156      0.165921
Cu	      8.28709      8.39090      8.55317         0.007071      0.059831      0.098746
Ni	      4.17729      8.37088      4.28994         0.030330      0.038920      0.105536
O	      6.13028      4.23428      8.68365        -0.267200     -0.036106     -0.238164
O	      2.15928      1.89443      2.13818         0.060921     -0.060014     -0.016147
O	      4.28961      4.26970      2.25464         0.087870     -0.136618     -0.099730
O	      4.17965      2.28957      4.34363         0.215880     -0.087425      0.063572
O	      6.21134      4.10884      4.17953         0.165896      0.047450     -0.067996
O	      6.05127      2.15498      6.22998         0.083515      0.009305     -0.158933
O	      8.19266      4.43799      6.26130         0.023463      0.051471      0.137198
O	      2.07735      4.26895      4.20069        -0.060249      0.020257     -0.136535
O	      4.12377      6.21365      4.34827        -0.015773      0.131174      0.287671
O	      4.10279      4.18188      6.26445         0.026084      0.192172      0.045207
O	      6.25916      6.35472      6.42292         0.148686     -0.063605      0.048858
O	      8.25900      6.42015      8.31698        -0.028943      0.041283      0.128645
O	      2.12004      6.26889      6.64919        -0.070867      0.023490      0.397076
O	      4.14373      8.37974      6.29523        -0.081644     -0.502716      0.136897
O	      4.01784      6.21430      8.66996         0.154150     -0.022225     -0.365891
O	      6.20228      8.60323      8.73017         0.044302     -0.159040     -0.198383
O	      6.06696      6.54440     10.62825         0.070218      0.049073      0.023390
O	      8.11661      8.42445     10.80315        -0.185499     -0.011389     -0.006657
