# total energy = -214.36045178 eV
 
CRYSTAL
PRIMVEC
-0.009406 6.221059 6.382578 
6.261890 -0.024322 6.398181 
4.157018 4.139597 0.001610 
PRIMCOORD
36 1
Li	      4.23381     10.18234      6.40466         0.025440      0.034611     -0.011928
Li	      4.15055      8.29271      8.33352         0.044126      0.012930     -0.029049
Li	      4.14666      6.26755      2.22510         0.015359     -0.006907      0.023593
Li	      6.15840      6.29797      4.27558        -0.000462      0.014090      0.015738
Li	      4.15376      8.29369      4.33550        -0.017468      0.015174      0.044872
Li	      2.16208      6.14784      4.32767        -0.017710      0.050424      0.086575
Li	      1.97244      4.18755      6.32370         0.018631     -0.029047     -0.013735
Li	      4.10740      6.30958      6.27680         0.018404     -0.008127     -0.052454
Li	      6.22830      6.12501      8.50630        -0.052736      0.047807      0.001652
Mn	      2.11184      0.08471      2.11938         0.006466     -0.090016     -0.082936
Mn	      4.09745      4.25555      4.20098         0.095606      0.041439      0.024046
Mn	      8.30113      6.19875      6.41600        -0.008679      0.049374     -0.131085
Mn	      6.22312      4.17779      6.44817         0.020538      0.048255     -0.157395
V	      6.24972      8.14090     10.57208        -0.153515     -0.083279      0.026151
Co	      8.32406      4.10733      4.27950         0.057139      0.032680     -0.033211
Cu	      2.21126      8.27455      6.43798        -0.141126     -0.173003     -0.053518
Cu	      2.03463      4.13156      2.18027        -0.039600      0.115232      0.162378
Cu	      8.36052      8.22469      8.55440        -0.081615     -0.055576      0.015008
O	      8.34081      6.18074      8.32223         0.014381     -0.042583      0.052108
O	      4.15542      8.25889      6.34864         0.235307      0.033130      0.041916
O	      2.12350      2.17924      2.03524        -0.022915     -0.017111      0.044369
O	      4.32060      4.13728      2.29122        -0.018774      0.035830     -0.035512
O	      4.25582      1.98816      4.37191         0.000864      0.013022     -0.001451
O	      6.25082      4.08236      4.20010         0.015409     -0.052754     -0.100889
O	      6.14173      2.22303      6.22604        -0.065404     -0.015245      0.050693
O	      8.30627      4.12876      6.25583        -0.113065      0.170906     -0.115250
O	      2.24859      4.15021      4.19899        -0.007874      0.021147     -0.059920
O	      4.15144      6.07725      4.24343         0.007371     -0.079186     -0.040166
O	      4.18662      4.12900      6.13488        -0.041799      0.011201     -0.078078
O	      6.37613      6.07184      6.38256        -0.052266     -0.023812      0.011804
O	      6.13735      4.12726      8.44369         0.181074     -0.052734      0.165547
O	      2.06355      6.25543      6.59026        -0.054784     -0.225858      0.068955
O	      4.07251      6.12246      8.73422        -0.016778      0.058299      0.070911
O	      6.31330      8.22632      8.74963        -0.036395      0.042715      0.021255
O	      6.09687      6.27470     10.68802         0.020447      0.025581     -0.008745
O	      8.20008      8.38403     10.84021         0.166403      0.081390      0.077754
