# total energy = -215.66023068 eV
 
CRYSTAL
PRIMVEC
0.041488 6.179640 6.243560 
6.235461 0.046093 6.239201 
4.190982 4.151103 -0.003406 
PRIMCOORD
36 1
Li	      4.21438      4.14592      0.04746         0.006492     -0.028459     -0.008053
Li	      4.15119      2.14856      2.12942        -0.022509      0.037324      0.040340
Li	      8.42083      4.29560      8.32711         0.069679      0.077697     -0.015367
Li	      4.16776      4.14190      4.12756         0.003847     -0.006252     -0.002809
Li	      8.25832      6.25992      6.25254        -0.065183      0.029178     -0.015478
Li	      6.23052      4.26737      6.24746        -0.028757      0.009668     -0.018188
Li	      8.35439      6.17775     10.33899        -0.040991     -0.020644     -0.021538
Li	      4.29202      6.17628      6.21447         0.018831     -0.011897     -0.032232
Li	      6.33146      6.16905      8.24553         0.015018     -0.023967     -0.025073
Mn	      2.05756      0.03832      2.06868         0.058205     -0.049853      0.099193
Mn	      6.10773      2.03434      4.22349         0.011847      0.027839      0.028628
Mn	      0.05884      4.12003      4.16346        -0.055777      0.082269      0.014120
Mn	      4.19237      4.11469      8.24163        -0.022115      0.078012      0.047311
V	      8.34176      2.19375      6.25870         0.121595      0.060614     -0.012080
Co	      2.09935      2.09693      4.18341         0.036051     -0.028629      0.073799
Ni	      4.15599      0.05523      4.16538        -0.036705      0.000217      0.125278
Ni	     10.39320      6.22443      8.29862         0.030528      0.038094     -0.068582
Ni	      6.30471      8.25281      6.22085        -0.137006      0.081338      0.006176
O	      2.10244      1.96838      2.05635         0.087357     -0.040451      0.006514
O	      4.35834      4.15367      2.08725         0.089515     -0.100036     -0.039401
O	      4.05716      2.06182      4.16883        -0.095175      0.185974      0.005610
O	      6.28971      4.26653      4.03106        -0.133129      0.020717     -0.100744
O	      6.40548      2.10940      6.22911        -0.047337     -0.055532     -0.047493
O	      8.35353      3.99081      6.29661         0.047206     -0.017172      0.079360
O	      1.99714      4.05806      4.15481         0.097326     -0.016813     -0.152781
O	      4.33841      6.31707      4.10396         0.011414     -0.059745      0.134673
O	      4.15177      4.15905      6.41284         0.203534     -0.004874     -0.012344
O	      6.28102      6.25405      6.07252        -0.035161     -0.114592     -0.017721
O	      6.10934      4.16048      8.42651        -0.035452      0.072919     -0.052644
O	      8.36742      6.38438      8.32090        -0.174690     -0.049526     -0.029114
O	      2.15608      6.28933      6.38772        -0.033633      0.086655      0.057123
O	      4.16282      8.25828      6.09391        -0.025308      0.001568      0.043615
O	      4.08312      6.08450      8.35973        -0.100085     -0.062389     -0.096983
O	      6.39997      8.40107      8.34438         0.033665     -0.004280      0.047025
O	      6.24168      6.11708     10.39166         0.136288     -0.098838      0.024883
O	      8.45045      8.26783     10.44568         0.010615     -0.096135     -0.065019
