# total energy = -217.19287468 eV
 
CRYSTAL
PRIMVEC
0.028527 6.289047 6.273698 
6.169431 0.040115 6.261827 
4.151222 4.222635 -0.011199 
PRIMCOORD
36 1
Li	      8.23950      2.19303      6.28505         0.007141      0.001978     -0.024460
Li	      6.19003      4.33772      2.20087         0.002402      0.022981     -0.097375
Li	      8.10577      4.20064      4.20806         0.128443     -0.063857     -0.018178
Li	      6.21992      2.32034      4.15617         0.061329     -0.086081     -0.013418
Li	      0.09320      2.11108      2.17278         0.027257      0.016739     -0.047926
Li	      2.07932      4.14868      2.06062        -0.000536      0.015507     -0.056888
Li	      6.21938      6.20806      4.12619         0.026972      0.078251     -0.017760
Li	      6.25386      4.23132      6.13656         0.035021      0.046687      0.129262
Li	      2.14376      6.30404      4.16866        -0.067775      0.007902     -0.008205
Mn	      4.05290      2.12040      2.13330        -0.122410     -0.043774     -0.333233
Mn	      4.15834      8.32418      4.15760        -0.052153      0.186245      0.104101
Mn	      6.20434      8.43177      6.23986         0.029907      0.057437      0.102978
Mn	      6.24696      6.29774      8.35200        -0.010419     -0.046024      0.079419
V	      6.09760      0.22564      6.22838         0.080700     -0.189536     -0.006374
Co	      4.11761      6.29863      6.23002        -0.015272     -0.003912     -0.000906
Co	      8.28952      8.42017      8.41960         0.063395      0.015811     -0.060545
Cu	      4.24221      4.24970      4.13428        -0.173449      0.134080     -0.051840
Ni	      4.09214      2.13980      6.19797         0.033292     -0.012397     -0.035379
O	      6.15478      4.22154      4.20225        -0.034765      0.052401     -0.068249
O	      2.21306      2.10770      2.04574         0.029409      0.007660      0.068173
O	      4.13513      4.07473      1.83814        -0.006607      0.103294      0.026172
O	      4.16607      2.22677      4.05345         0.006530      0.034394      0.311545
O	      6.20213      1.98002      6.28245         0.128999      0.251943     -0.025381
O	      8.43795      4.30033      6.21707        -0.123818     -0.117557     -0.027135
O	      2.00079      4.21856      4.35543         0.142565     -0.055340     -0.055113
O	      4.13159      6.32512      4.26364         0.044845     -0.324745      0.014408
O	      3.95381      4.21548      6.38073        -0.099297      0.114588     -0.004062
O	      6.20690      6.50167      6.20448        -0.027477      0.052726     -0.007435
O	      6.24075      4.36082      8.36488        -0.064027     -0.059789     -0.090145
O	      8.16784      6.37420      8.27674        -0.020016     -0.086974      0.152106
O	      1.96412      6.13914      6.31499        -0.013772     -0.091613      0.018417
O	      4.23488      8.44239      6.33751         0.089850     -0.042959     -0.010390
O	      4.23971      6.38066      8.26071        -0.042292      0.013859      0.098369
O	      6.11331      8.29464      8.25144         0.060485      0.058723      0.012147
O	      6.22292      6.19852     10.66908         0.005671      0.003450     -0.129423
O	      8.42497      8.43380     10.41148        -0.130129     -0.052099      0.072725
