# total energy = -217.75935633 eV
 
CRYSTAL
PRIMVEC
0.008207 6.313742 6.249743 
6.152198 0.017385 6.240914 
4.105305 4.206792 0.007849 
PRIMCOORD
36 1
Li	     10.17568      4.23661      6.26092        -0.040463     -0.025698     -0.031749
Li	      8.19074      8.46244     12.44037         0.007203     -0.003939      0.026783
Li	      4.11360      8.47838      8.25699        -0.020355      0.020361      0.024866
Li	      8.24119     10.46847     10.49109         0.012258      0.012399     -0.001804
Li	      6.13774      2.09014      8.13616        -0.024856     -0.001934     -0.064020
Li	      4.12614      4.25020      4.12103        -0.003609      0.025681     -0.016208
Li	      4.22715      2.10985      6.25473        -0.036964     -0.014908     -0.026882
Li	      4.04446      8.41874      4.28160         0.013279     -0.030019      0.041253
Li	      4.14062      4.23961      8.36033         0.063144      0.015125      0.008878
Mn	      8.21303      4.20377      8.25077        -0.073995     -0.035410     -0.164137
Mn	      2.06796      6.33087      4.19660         0.015116     -0.090493     -0.043800
Mn	      4.12388      6.33826      6.30005        -0.054125      0.015216      0.076791
Mn	      6.15232      6.31937      8.37849         0.023746     -0.077273     -0.006535
V	      2.17474      2.12487      4.12429         0.141635     -0.030486     -0.065420
Co	      6.15073      4.18839      6.21877         0.028812     -0.000598     -0.026550
Co	      6.20184      8.42579      6.31899        -0.017690      0.007083     -0.003365
Cu	      6.06468      4.16214      2.11853        -0.041167      0.121320      0.087879
Cu	      6.17064      2.14903      4.19103        -0.075474      0.049875     -0.032292
O	      6.13719      2.30305      6.11312         0.015081      0.056875      0.046898
O	      1.99912      2.20446      2.22313        -0.008736      0.093993      0.026183
O	      3.92012      4.24559      2.00901         0.171917      0.004882      0.001071
O	      3.93644      2.15807      4.22636        -0.068303      0.026133     -0.021802
O	      6.15572      4.39568      4.18683        -0.021015      0.092131      0.101379
O	      8.08936      4.18864      6.34314        -0.038498     -0.023561     -0.013143
O	      2.05541      4.23669      4.06482        -0.020671      0.003929     -0.008618
O	      4.13151      6.33862      4.35765        -0.049403      0.005412      0.040498
O	      4.15775      4.37197      6.25696        -0.017437      0.049550      0.041210
O	      6.07646      6.22539      6.23416        -0.014986     -0.022344      0.026620
O	      6.22835      4.20126      8.13509        -0.099994      0.020246      0.004844
O	      8.09062      6.16440      8.29474         0.126874      0.027956      0.017847
O	      2.20814      6.31762      6.37044         0.037381      0.032517     -0.094129
O	      4.21540      8.23979      6.27540         0.016299     -0.095584      0.047227
O	      4.25999      6.32066      8.25028        -0.076459     -0.013885     -0.015457
O	      6.17283      8.43512      8.41141         0.056282     -0.134972     -0.028576
O	      6.23108      6.24153     10.36877         0.017663     -0.120418      0.029162
O	      8.20502      8.21785     10.39588         0.057510      0.040834      0.015100
