# total energy = -216.23781142 eV
 
CRYSTAL
PRIMVEC
0.006821 6.361677 6.200474 
6.149612 0.026585 6.180075 
4.125489 4.252970 -0.007553 
PRIMCOORD
36 1
Li	      4.12425     10.50722      6.23564        -0.026236     -0.000528      0.069881
Li	      4.09101      6.33123      2.07159         0.012673     -0.131237     -0.030605
Li	      4.06650      4.32908      4.29591         0.061992      0.008322     -0.127742
Li	      4.03948      2.38675      6.24566         0.082693      0.002427     -0.003030
Li	      6.02399      4.36811      6.26935         0.106065      0.010373      0.034629
Li	      4.18320      8.41985      4.14204        -0.047638     -0.031792     -0.029611
Li	      2.21702      4.16780      6.23322        -0.023415      0.024777      0.095798
Li	      4.15256      6.24512      6.20634        -0.007997      0.029137     -0.006304
Li	      4.17853      4.27039      8.05189         0.007380      0.077735      0.089503
Mn	      2.12535      8.46929      6.19564        -0.109665     -0.145619     -0.183586
Mn	      4.14160      6.33776     10.31121        -0.111823      0.027145     -0.081944
Mn	      6.07981      6.45117      4.26109         0.063861     -0.055778     -0.079056
Mn	      2.14873      6.29720      4.13481         0.032537      0.216450      0.264969
V	      6.08224      2.18126      4.17491         0.051581      0.057942     -0.071833
Co	      8.22562      4.32475      8.22717        -0.111577      0.237550      0.241853
Co	      6.20485      6.38985      8.21543        -0.020240     -0.012716     -0.194586
Ni	      6.10726     10.57874      8.16018        -0.016147     -0.033373      0.014411
Ni	      4.10150      8.50582      8.21678         0.072850      0.130644      0.049180
O	      4.12532      4.27573      6.20408        -0.019864      0.022498      0.011926
O	      2.01179      2.10495      1.93554        -0.079692      0.561967      0.025292
O	      4.00448      4.19857      2.02152        -0.167592     -0.019414     -0.013890
O	      4.13356      2.06463      4.13710        -0.096691      0.056808      0.104556
O	      6.24021      4.16249      3.98618         0.041078      0.088605      0.122770
O	      6.24111      2.12845      5.97907         0.008759     -0.008373      0.167796
O	      8.22955      4.05864      6.05616        -0.001764      0.047153      0.443562
O	      2.04644      4.30334      4.10018         0.009561     -0.071144     -0.797244
O	      4.09374      6.40276      4.07964        -0.016781      0.005142      0.007032
O	      6.19748      6.41248      6.29185         0.012717      0.033410      0.181333
O	      6.36410      4.48994      8.22859         0.070672      0.006377      0.097805
O	      8.15772      6.37886      8.36669         0.117566     -0.763466     -0.153954
O	      2.04285      6.50802      6.12776        -0.010003      0.000956     -0.153258
O	      3.96330      8.47631      6.20627         0.015115     -0.037454     -0.215926
O	      4.20320      6.39483      8.37946         0.024945     -0.115276      0.083490
O	      6.16230      8.45110      8.40479         0.125775     -0.068909     -0.055828
O	      6.17047      6.51146     10.20343        -0.072458     -0.111797      0.074610
O	      8.17066      8.45488     10.39377         0.021762     -0.038540      0.018001
