# total energy = -222.07272367 eV
 
CRYSTAL
PRIMVEC
-0.005971 6.350413 6.296290 
6.121362 -0.005419 6.296194 
4.064112 4.217215 0.012768 
PRIMCOORD
36 1
Li	      0.03491      6.29997      6.26327         0.165624     -0.085840     -0.056167
Li	      2.04802      8.25450      6.28112        -0.006158     -0.168394     -0.023141
Li	      2.00508      6.38498      8.28525         0.005198     -0.024387     -0.130201
Li	      6.09789      2.08688      4.24608         0.045348     -0.009838      0.044363
Li	      2.02574      2.14092      4.15031        -0.025100      0.009814     -0.007102
Li	      6.12473      4.23080      6.27031         0.027674     -0.004826     -0.019971
Li	      0.04681      4.28151      4.27855         0.030404      0.048677      0.115432
Li	      2.03316      6.27379      4.29962        -0.017119     -0.057002      0.147763
Li	      4.05042      6.40954      6.24928        -0.115508      0.022036     -0.034367
Mn	      8.08718      4.25383      4.25988         0.086085     -0.067470     -0.035928
Mn	      0.06428      2.04753      2.08836         0.080124      0.011982     -0.063310
Mn	      4.14403      4.24536      4.19667         0.078870      0.154386      0.041044
Mn	      4.09144      2.15148      6.29399        -0.172332     -0.011455     -0.011791
V	      8.14028      8.46358      8.54217        -0.024834      0.057054      0.315400
Co	      4.01144      2.15314      2.05070         0.070652     -0.013129      0.029658
Co	      8.11312      4.19367      8.40409         0.000398      0.028715     -0.057165
Co	      1.97685      4.28315      6.25967         0.136642     -0.558262      0.266232
Co	      6.09374      6.36432      8.45180        -0.028858      0.106196     -0.052865
O	      1.99656      2.10358      2.00159         0.040802     -0.086400     -0.067300
O	      4.01839      4.14125      2.04003        -0.119046     -0.122736      0.016595
O	      4.08036      2.25025      4.14084        -0.028385      0.052831      0.145809
O	      6.13953      4.21909      4.21002        -0.042595     -0.007406      0.025408
O	      6.02503      2.13140      6.44530        -0.039814      0.050657      0.066414
O	      8.11913      4.43538      6.22644        -0.064567      0.024565      0.045971
O	      2.16100      4.22612      4.20223        -0.142519     -0.151367      0.441402
O	      4.13189      6.18125      4.02864        -0.059126      0.063925     -0.032441
O	      4.07594      4.13490      6.49052        -0.418338      0.148190     -0.134168
O	      6.18950      6.51441      6.46280         0.056591     -0.201227      0.100809
O	      6.06831      4.39021      8.42089         0.061355     -0.015157     -0.045464
O	      8.11754      6.44340      8.47038         0.077867      0.014716     -0.150792
O	      2.05861      6.10595      6.26685        -0.063715      0.419545      0.112837
O	      4.10040      8.39889      6.39319         0.599283      0.166646     -0.283534
O	      4.15476      6.29723      8.47776         0.012335      0.181797      0.021740
O	      6.14297      8.30453      8.39699        -0.233334      0.068382     -0.486561
O	      5.94926      6.35163     10.38262        -0.048187      0.036696     -0.056432
O	      8.10976      8.43920     10.34205         0.074281     -0.081914     -0.188177
