# total energy = -212.07886452 eV
 
CRYSTAL
PRIMVEC
0.004812 6.299073 6.215072 
6.259139 0.012766 6.207249 
4.165798 4.187152 0.015364 
PRIMCOORD
36 1
Li	      6.22938      6.37127     12.28957        -0.020173      0.030895     -0.091592
Li	      6.31633      2.12855      4.20537         0.009045     -0.042843      0.001548
Li	      6.27287      6.28593      4.18945         0.036278     -0.037989      0.013646
Li	      4.24260      2.04334      6.16928         0.018226      0.023690     -0.050490
Li	      6.28172      4.16290      6.17625        -0.027846      0.033927     -0.089635
Li	      6.18990      4.28266     10.34219        -0.085648      0.066360      0.031517
Li	      2.06145      6.31325      4.21436        -0.092855      0.036671     -0.038666
Li	      2.08399      4.23321      6.15818        -0.011235     -0.013181     -0.057538
Li	      8.33966      8.36828      8.43023        -0.040833     -0.031001      0.078110
Mn	      4.19368      8.38328      8.30816         0.237227     -0.088683      0.002163
Mn	      6.24578      2.18436      8.24100        -0.130459     -0.056424      0.055338
Mn	      4.16889      4.17737      4.15784         0.456888     -0.020627      0.174351
Mn	      4.13814      6.28122      6.17692         0.150265     -0.077044     -0.132461
V	      6.34754      6.27757      8.30068        -0.403590      0.352583      0.917680
Cu	      8.32981      4.21555      8.24524        -0.096350      0.116022     -0.220326
Ni	      8.31249      8.41536     12.36600         0.009248     -0.038059     -0.073767
Ni	      6.29511     10.44047      8.30343         0.201979     -0.155472      0.104254
Ni	      8.30798      4.12558      4.25125        -0.362394      0.679024     -0.128434
O	      2.16635      2.05849      2.04074         0.039013      0.359058     -0.044211
O	      4.24926      4.10856      2.16603        -0.319857     -0.144662     -0.159360
O	      4.16031      2.20158      4.04094         0.070877      0.322234     -0.070705
O	      6.26326      4.19832      4.11309        -1.217091      0.021438     -0.139345
O	      6.26402      2.09717      6.36468         0.012369      0.027822      0.241411
O	      8.35096      4.19683      6.19542         0.016173     -0.204286      1.128351
O	      2.26972      4.18489      4.03826        -0.060837     -0.031235      0.006484
O	      4.18344      6.15374      4.01810         0.088986      0.005867     -0.140199
O	      4.14945      4.31349      6.02892         0.001078      0.103347     -0.004130
O	      6.10160      6.28592      6.42313        -0.101832      0.005728      0.169851
O	      6.23943      4.26846      8.32570         0.548484     -0.074570     -0.033317
O	      8.25270      6.34356      8.27802         0.082634     -0.492376     -0.034298
O	      2.21512      6.30421      6.24087         0.001611      0.024259      0.127413
O	      4.16816      8.27207      6.35944        -0.018742     -0.084773      0.180855
O	      4.20674      6.42532      8.43180        -0.088327      0.205874     -0.708215
O	      6.14798      8.30379      8.28848        -0.219204      0.059029     -0.027098
O	      6.10246      6.30321     10.23581         1.307663      0.044969     -1.009077
O	      8.32743      8.50311     10.38541         0.009231     -0.925572      0.019892
