# total energy = -91.85019502 eV
 
CRYSTAL
PRIMVEC
1.983185 4.006546 1.982855 
4.051881 -4.062198 0.026084 
4.025636 -0.000134 -4.024683 
PRIMCOORD
16 1
Li	      3.88882      1.86148      1.90159        -0.325882      0.720837      0.125339
Li	      3.90187      0.02613      0.03093        -0.512268     -0.044006     -0.253493
Li	      3.95030     -1.91627     -1.94108        -0.321679     -0.206663     -0.322389
Li	      5.82159     -0.08195     -1.95393        -0.026839      0.452686     -0.444227
Mn	      9.74832     -0.05428     -1.94581         4.204092     -0.389692     -0.021348
Mn	      5.87766     -1.99753      0.00071         1.051097     -2.887322      1.744504
Ni	      7.81801     -0.05435     -0.01624         1.066896      0.184418      1.535824
Ni	      7.80794     -1.99771     -1.92915         1.224215     -1.414168     -1.057499
O	      5.85302     -0.16417      0.09318        -0.791457      1.307541      0.454874
O	      5.87798     -1.99416     -1.79484        -0.702557     -0.169241     -1.694429
O	      3.74285      1.93958     -0.02511        -0.135813      0.665568      0.930711
O	      3.89370     -0.00383     -2.09881        -0.829762      0.133196     -0.349760
O	      7.95294     -0.05132     -1.94569        -0.820978      0.994556     -0.943783
O	      4.01242     -2.10727      0.00995        -1.681276     -0.380249      0.162449
O	      5.84316      2.05248     -2.06353         0.025081      1.003413     -0.098877
O	      1.85473      0.10961      0.00033        -1.422870      0.029126      0.232103
