# total energy = -212.41812891 eV
 
CRYSTAL
PRIMVEC
0.006799 6.268175 6.353490 
6.194406 0.000136 6.360258 
4.122773 4.176307 0.007580 
PRIMCOORD
36 1
Li	      4.18060     10.37471      6.41035        -0.040463      0.019755      0.026674
Li	      6.20652      2.12057      8.49100        -0.007148      0.008287      0.010352
Li	      2.02852      4.14517      2.18661        -0.013703      0.023989     -0.003858
Li	      6.09603      6.34539      4.23204        -0.012783      0.009928      0.010305
Li	      6.16639      4.16547      6.47375         0.017122      0.026816      0.005334
Li	      4.16441      8.28834      4.33546         0.012282     -0.005708     -0.035362
Li	      2.16149      6.21189      4.33504         0.013298     -0.049700      0.041356
Li	      1.98298      4.20016      6.25550         0.048160     -0.091271     -0.074239
Li	      4.07945      6.35483      6.23895         0.038618     -0.085220     -0.042492
Mn	      2.05719      6.26873      8.39849        -0.037072     -0.002787      0.168159
Mn	      4.03825      4.26166      4.24359        -0.012956      0.027915      0.047228
Mn	      4.17083      2.14123      6.34895        -0.027777     -0.001529      0.020809
Mn	      6.21759      6.22551      8.41628         0.048165      0.050921      0.011151
V	      8.24504      4.14630      4.34267        -0.010728      0.122117     -0.073977
Cu	      2.10122      8.30003      6.40213        -0.195755     -0.034182      0.021834
Cu	      4.18850      4.16451      8.44624         0.065213     -0.019500     -0.022979
Ni	      4.12801      8.35969      8.36839        -0.007847     -0.006737      0.211085
Ni	      6.20661      2.09378      4.29346        -0.044548     -0.025056     -0.025482
O	      4.06647      8.35634      6.38733         0.055969     -0.006175     -0.133887
O	      2.08837      1.92055      2.04754        -0.109580      0.025389      0.032579
O	      4.23721      4.10596      2.27846        -0.012335      0.055021     -0.089304
O	      4.11979      2.10779      4.32142        -0.077410     -0.033007     -0.014426
O	      6.28561      4.18964      4.09352        -0.060812      0.077301     -0.053927
O	      6.10036      2.08821      6.29718         0.074997      0.010693      0.125282
O	      8.24204      4.37235      6.21675         0.019149     -0.156956      0.100466
O	      2.21428      4.19042      4.17931        -0.040063      0.009465     -0.009452
O	      4.12603      6.08431      4.25172         0.009003      0.050134      0.003002
O	      4.15754      4.07497      6.13369         0.012228      0.182755     -0.106493
O	      6.33625      6.28051      6.51043         0.005014      0.034301     -0.026693
O	      6.13039      4.31082      8.49114         0.087385     -0.044458      0.000559
O	      8.30792      6.37316      8.27062         0.074520     -0.031186      0.060923
O	      2.04380      6.14831      6.57124        -0.048367      0.038173     -0.080513
O	      4.03591      6.23251      8.56151        -0.038517     -0.011017     -0.014533
O	      6.24704      8.36624      8.57718         0.023608     -0.055130     -0.126681
O	      5.99433      6.31116     10.40978         0.053968     -0.079315      0.041186
O	      8.23522      8.50168     10.79537         0.139166     -0.034026     -0.003987
