# total energy = -211.62591083 eV
 
CRYSTAL
PRIMVEC
0.012498 6.586523 6.093022 
6.291589 0.033115 6.072160 
4.194114 4.377455 0.022978 
PRIMCOORD
36 1
Li	      6.37415      0.30367      6.05817         0.027355     -0.007827     -0.015608
Li	      8.33125      8.71936     12.14631         0.010986     -0.020456     -0.049980
Li	      6.33002     10.74371      8.15201        -0.008804      0.048336      0.001169
Li	      4.31147      6.67644     10.14274         0.028110      0.038364     -0.010916
Li	      6.29466      2.18772      4.10192         0.042832     -0.023607      0.052862
Li	      4.37125      2.25123      6.04116        -0.009897      0.007199      0.072787
Li	      6.23836      4.26353      6.03452         0.002941      0.068352     -0.039665
Li	      6.24521      8.76738      6.21388         0.029863     -0.012681     -0.130844
Li	      6.21393      6.76546      8.15515         0.104173     -0.108563      0.020037
Mn	      2.16135      2.20092      4.08963        -0.227144      0.050877      0.116739
Mn	      4.23016      4.37852      4.08577        -0.144755      0.095247      0.088055
Mn	      8.30636      6.59566     10.17367        -0.064322     -0.231797      0.098433
Mn	      4.19618      6.58987      6.15239        -0.075573     -0.213887     -0.239430
V	      8.35861      4.47377      7.89607        -0.050536      0.178736      0.526389
Cu	      4.30875      8.76745      8.13434        -0.072127      0.072969      0.123534
Cu	      6.33160      2.25299      7.98876        -0.051940      0.073317      0.253391
Cu	      8.21438      8.82190      8.09602         0.167614      0.161616      0.123133
Ni	      4.15577      8.78589      4.15215         0.051634      0.162605     -0.131693
O	      4.21313      6.51021      8.01265        -0.102668     -0.025255      0.216747
O	      6.22116      8.75616      8.17104        -0.266581     -0.002542     -0.037988
O	      2.32299      2.52777      2.16403         0.105791     -0.235850     -0.240524
O	      4.03932      4.60458      2.07731         0.146234     -0.116439     -0.091583
O	      4.15380      2.27191      4.07543         0.368496     -0.120487     -0.264246
O	      6.10737      4.58635      3.99922         0.154262     -0.134155     -0.020148
O	      6.32700      2.26992      6.10833         0.009521     -0.000313     -0.180850
O	      8.41285      4.44490      6.19363         0.027811      0.001255     -0.465225
O	      2.21836      4.45698      4.05749         0.104881     -0.245134     -0.036828
O	      4.13155      6.63105      4.09712        -0.001058      0.052158      0.030234
O	      4.18873      4.59187      6.10072         0.038929      0.028492     -0.128107
O	      6.13450      6.59329      5.98337        -0.033531      0.020456      0.131740
O	      6.55065      4.23910      8.17106        -0.063166     -0.043593     -0.057094
O	      8.23996      6.31927      8.22038         0.019175      0.044632     -0.198103
O	      2.22191      6.58100      5.98992         0.029556      0.032534      0.202722
O	      4.16516      8.49534      6.14521         0.030269      0.161100      0.300453
O	      6.42218      6.44458     10.22961        -0.199036      0.043088      0.017936
O	      8.42217      8.54195     10.00156        -0.129291      0.201252     -0.037528
