# total energy = -210.78784017 eV
 
CRYSTAL
PRIMVEC
0.011038 6.222110 6.359729 
6.174873 0.017511 6.352560 
4.129149 4.156000 -0.000863 
PRIMCOORD
36 1
Li	      6.16036      3.99600      2.26421        -0.007228     -0.086500      0.026394
Li	      4.22904      2.14081      2.22528         0.065240      0.001898      0.006149
Li	      4.10519      6.26772     10.48094        -0.057893      0.065812     -0.147329
Li	      6.18987      8.31819     10.42970        -0.041482      0.007026     -0.127667
Li	     10.28948      6.26785      8.48442         0.026164     -0.011987     -0.092675
Li	      4.12047      4.16949      4.16731         0.041515     -0.041299      0.011523
Li	      6.17663      8.31053      6.58281         0.029176     -0.014579      0.063405
Li	      8.09550      8.26785      8.58034        -0.010298      0.031094     -0.028835
Li	      6.26085      6.35799      8.51796        -0.046415     -0.003727      0.021051
Mn	      4.16895     10.33200      6.36270         0.060075     -0.028390      0.063818
Mn	      8.24671      8.31143     12.70089        -0.078959      0.036049     -0.017986
Mn	      4.08093      2.13556      6.27466         0.026183      0.063063      0.219228
Mn	      6.19580      4.17158      6.26088         0.063651     -0.130476      0.202290
V	      4.14742      6.22530      6.60722        -0.102627     -0.059534      0.271611
Cu	      8.24597      4.19763      8.42151         0.106861      0.040157     -0.173722
Cu	      2.05675      2.11347      4.14136        -0.038156     -0.025253      0.047278
Cu	      6.19652      4.15043     10.53447        -0.164990      0.139890     -0.158501
Cu	      2.11658      6.15555      4.20571        -0.071925      0.061023     -0.033896
O	      8.27685      6.11417      8.20850         0.014929      0.024262      0.148763
O	      6.18730      8.29934      8.49988         0.003980     -0.036273      0.092172
O	      6.30047      6.14009     10.77405         0.128030     -0.082620     -0.096244
O	      2.02114      2.26230      1.92382        -0.016091      0.044546      0.270082
O	      3.97140      4.18902      1.92375         0.061040      0.075880      0.119800
O	      4.01918      2.14461      4.38339        -0.096660      0.043134     -0.341360
O	      6.15029      4.28551      4.34639        -0.005247      0.083281     -0.348161
O	      6.22184      2.16986      6.22299         0.104565     -0.109645     -0.074267
O	      8.21348      4.07564      6.11647         0.065598     -0.004169     -0.238981
O	      1.98714      4.15302      4.29175         0.198583     -0.030661      0.372270
O	      4.11968      6.28194      4.44414         0.010024     -0.175666     -0.305755
O	      4.28151      4.22557      6.39521        -0.235771     -0.016717     -0.014793
O	      6.12891      6.10782      6.42665        -0.035240      0.208705     -0.097159
O	      6.36249      4.15126      8.22300        -0.113109     -0.011095      0.118760
O	      2.09993      6.36840      6.54606        -0.020395      0.002839      0.014936
O	      3.99841      8.21456      6.49726         0.081559      0.035614     -0.006949
O	      4.14607      6.18526      8.34223         0.001364      0.029359      0.297314
O	      8.35248      8.18104     10.70961         0.053951     -0.125042     -0.062564
