# total energy = -218.91840881 eV
 
CRYSTAL
PRIMVEC
0.014284 6.140270 6.195996 
6.433529 0.011280 6.198052 
4.298751 4.103924 -0.001149 
PRIMCOORD
36 1
Li	      8.52599      2.08674      6.23068        -0.039458      0.030310     -0.082940
Li	      4.39518      8.18184      8.30950         0.006036      0.039008      0.067848
Li	      4.22967      0.04371      4.08007         0.001269     -0.029907     -0.034387
Li	      6.47102      2.03383      8.17604         0.009791      0.010784     -0.006165
Li	      4.40116      4.04447      4.18294         0.038693      0.060783      0.018512
Li	      6.36132      4.09365      6.24008        -0.043936     -0.019830      0.106073
Li	      6.53441      8.15889      6.33480         0.010535      0.018875      0.001628
Li	      4.19924      4.14144      8.20588         0.007433      0.024625      0.089618
Li	      6.44107      6.23572      8.18312        -0.006688      0.010086      0.010275
Mn	      4.33765     10.24228      6.21717         0.025885     -0.017500     -0.082074
Mn	      2.16552      4.05139      2.02621        -0.033147      0.011570     -0.011575
Mn	      8.60444      6.13842     10.28235         0.008855      0.029740      0.009763
Mn	      4.32486      6.10124      6.26985         0.031300      0.040322      0.051377
V	     10.64021      8.20251     10.24928         0.099397      0.021990     -0.339186
Fe	      6.56086      6.08368      4.17099        -0.140076      0.141846      0.005859
Co	      2.16962      6.15091      8.23092         0.081332      0.009808     -0.047032
Cu	      6.33540      2.12430      4.10100         0.028093     -0.023243      0.047916
Ni	      4.27918      2.10893      6.22976         0.023868      0.084727      0.057879
O	      2.13611      2.08128      2.14183        -0.034315     -0.032933     -0.015568
O	      4.47619      4.12163      1.91729         0.022674     -0.025710     -0.022259
O	      4.16959      2.06864      4.22613         0.053866      0.000962     -0.166219
O	      6.46768      4.15621      3.96007        -0.028031     -0.133591     -0.021339
O	      6.38443      1.95794      6.08285         0.099478      0.105625      0.011150
O	      8.67222      4.10608      6.33293         0.002723     -0.074012     -0.022681
O	      2.06440      4.14406      4.00532         0.000636     -0.004865      0.015882
O	      4.37256      6.21752      4.27702        -0.038285     -0.170299     -0.031160
O	      4.30993      4.19549      6.19419        -0.056106     -0.115096      0.086339
O	      6.41055      6.15396      6.16114        -0.100075      0.013424      0.040351
O	      6.41328      4.09817      8.44055         0.094958     -0.007552      0.174676
O	      8.60173      6.03110      8.29480         0.017683     -0.016415      0.082529
O	      2.16289      6.13220      6.19333         0.008016      0.021806      0.017240
O	      4.35823      8.21616      6.03743        -0.017556     -0.035830     -0.004520
O	      4.13232      6.18083      8.14284        -0.039666      0.033424      0.013226
O	      6.43574      8.34576      8.37931         0.018303     -0.024617     -0.072220
O	      6.43072      6.07543     10.44815        -0.019970      0.101018      0.008272
O	      8.74694      8.05143     10.31500        -0.093515     -0.079333      0.042912
