# total energy = -218.97101359 eV
 
CRYSTAL
PRIMVEC
0.068268 6.364390 6.194063 
6.220836 0.054912 6.206589 
4.168233 4.271825 0.015955 
PRIMCOORD
36 1
Li	      8.28184      2.20780      6.25325         0.044438      0.023303      0.025714
Li	      6.28169      4.28804      2.18787        -0.004812     -0.041267     -0.046749
Li	      8.14389      4.35340      4.14237         0.027836     -0.019844      0.003860
Li	      2.10187      4.23372      2.06085         0.003302     -0.040015     -0.003109
Li	      6.31164      6.28168      4.26661        -0.003203     -0.040481     -0.116670
Li	      6.24985      4.46478      6.12554        -0.005048     -0.021592      0.126910
Li	      6.32697      8.38300      6.18439        -0.035825      0.018426      0.026543
Li	      4.37553      6.30470      6.24228        -0.013691     -0.047212     -0.010650
Li	      6.23661      6.39777      8.08319        -0.016091     -0.036810      0.018627
Mn	      4.21393      8.39607      8.26314        -0.011983      0.024080     -0.046942
Mn	      4.25495      8.49677      4.19692        -0.097563     -0.032989     -0.077913
Mn	      8.32397      6.43737     10.33867         0.243444     -0.115873     -0.064429
Mn	      4.14286      4.35937      8.21315         0.001082      0.007352     -0.236961
V	     10.32507      4.33952      6.24462        -0.075158     -0.046062      0.329953
Fe	      0.15500      2.13641      2.03183        -0.110376      0.024243     -0.038723
Co	      6.23425      2.20420      4.16186         0.139000      0.679135     -0.018105
Ni	      4.21551      4.26615      4.20614        -0.269410      0.074950     -0.044528
Ni	      8.25121      6.44465      6.21136         0.040352     -0.027523      0.023761
O	      6.29958      6.41757      6.15553        -0.098322     -0.055881     -0.037094
O	      2.05873      2.15694      2.12347         0.159731     -0.029775      0.024888
O	      4.20899      4.34330      1.99275        -0.010858     -0.016235     -0.049438
O	      4.31072      2.21236      4.12597        -0.471452     -0.122698     -0.077994
O	      6.19376      4.09947      4.19919         0.148716      0.026390      0.068810
O	      6.20442      2.08635      6.19121         0.129367     -0.181634      0.740161
O	      8.50946      4.34685      6.15513         0.041138     -0.079375      0.012745
O	      2.10263      4.48813      4.09929         0.083889      0.136261     -0.002566
O	      4.04842      6.35303      4.11986        -0.070747      0.140283      0.012725
O	      4.15898      4.25072      6.33003         0.037402      0.097371      0.033397
O	      6.17341      4.21357      8.37616        -0.058338      0.070935     -0.079726
O	      8.41668      6.54904      8.35411        -0.053552      0.045906      0.157916
O	      1.95676      6.42976      6.01372         0.016385      0.018837      0.007911
O	      4.20933      8.64481      6.17944        -0.009580      0.047851      0.121278
O	      4.18877      6.29655      8.27404        -0.005758     -0.106973      0.009021
O	      6.33600      8.53917      8.42155         0.127493     -0.148645     -0.868752
O	      6.39614      6.52426     10.36852        -0.070853     -0.247997      0.039760
O	      8.31671      8.44377     10.25666         0.249044      0.023558      0.036372
