# total energy = -216.79990904 eV
 
CRYSTAL
PRIMVEC
-0.004697 6.256859 6.384152 
6.174016 0.014764 6.364698 
4.123363 4.165939 0.002568 
PRIMCOORD
36 1
Li	      6.21506      6.30275     12.68109        -0.048552      0.041709     -0.077786
Li	      8.20897      8.30265     12.71915        -0.008011      0.001299     -0.036700
Li	      4.13285      6.22608     10.55698         0.030402     -0.059736      0.049870
Li	      6.21814      2.11961      8.43821        -0.010333      0.057906     -0.056446
Li	      4.14723      2.17030      6.35721         0.033129     -0.049074      0.041945
Li	      6.10937      4.11324      6.37859         0.052149     -0.052922      0.032858
Li	      8.24736      6.29073     10.62071        -0.012147      0.006890     -0.067097
Li	      4.12802      6.25367      6.40224        -0.017879      0.015389     -0.028538
Li	      6.08026      6.27915      8.51920         0.053619     -0.041159      0.017194
Mn	      6.18559     10.41032      8.50346        -0.360640     -0.002868      0.046984
Mn	      6.22258      6.25081      4.31543         0.028362     -0.059348      0.139136
Mn	      6.15304      4.23468     10.60222         0.143451      0.112150     -0.032339
Mn	      6.17203      8.33181      6.41655        -0.299595     -0.004548     -0.055284
V	      8.25218      4.34733      8.31866        -0.167887      0.058237     -0.049534
Fe	      6.15699      1.98417      4.34319         0.168454      0.133472     -0.013364
Cu	      4.07132      8.31156      8.48065        -0.002795     -0.179629     -0.004157
Cu	      4.13713      4.22884      4.35266        -0.054739      0.020356      0.144075
Cu	      4.15451      4.19821      8.47423        -0.176132     -0.022550      0.071695
O	      8.30591      6.09214      8.45463         0.049702      0.094953      0.033656
O	      4.01084      6.33010      8.49750         0.434650      0.285371     -0.060526
O	      2.09806      2.17964      2.27470         0.214638     -0.144044     -0.074780
O	      3.98769      4.09413      2.14070         0.201312     -0.075125     -0.011941
O	      4.06525      2.22823      4.36784        -0.085144     -0.107788     -0.012140
O	      6.21681      4.06195      4.10336        -0.011220      0.189395     -0.168598
O	      6.23168      2.09865      6.16693        -0.003923      0.056747      0.574074
O	      8.19102      4.13062      6.61166         0.026527      0.012698     -0.106829
O	      1.96051      4.24855      4.14658         0.076119      0.071497     -0.010458
O	      4.27819      6.19670      4.24060        -0.138846      0.169847      0.010075
O	      3.98716      4.18450      6.54618         0.299074      0.123161     -0.024256
O	      6.17994      6.38206      6.24851        -0.013033     -0.010618      0.094868
O	      6.35749      4.18772      8.59700        -0.029824     -0.028639     -0.051840
O	      2.02296      6.12376      6.60424         0.054546      0.066638     -0.021562
O	      4.19328      8.35106      6.15473        -0.072618     -0.023368      0.147423
O	      6.05894      8.29364      8.65737        -0.267006     -0.144019     -0.373163
O	      6.13833      6.34049     10.63508         0.010216     -0.545226     -0.103444
O	      8.31919      8.30535     10.45600        -0.096028      0.032943      0.036928
