# total energy = -217.56977081 eV
 
CRYSTAL
PRIMVEC
0.039952 6.245403 6.277968 
6.258506 0.018432 6.299778 
4.168593 4.174260 0.016237 
PRIMCOORD
36 1
Li	      2.10548      6.28969      8.29215        -0.021123      0.013530     -0.198476
Li	      6.21977      2.11536      4.24515        -0.031710      0.037182      0.017929
Li	      0.03391      2.08757      2.09126        -0.002474     -0.001644      0.019177
Li	      2.12272      4.10658      2.12899         0.032486     -0.087867      0.051937
Li	      2.05333      2.13475      4.16156        -0.045735      0.032594     -0.043835
Li	      8.38058      6.22574      6.32725         0.007703     -0.018658      0.117890
Li	      4.26907      8.27732      4.24133         0.088722     -0.081546      0.007260
Li	      6.20339      8.36613      6.26808        -0.046960      0.036935      0.000877
Li	      4.19157      6.31634      6.25665         0.007283      0.010923     -0.011452
Mn	      4.10526      2.12851      2.06411         0.073037      0.019214     -0.036548
Mn	      4.18298      4.17847      4.19863        -0.018534      0.031577      0.017013
Mn	      6.29433      4.14410      6.33183        -0.065535      0.007633      0.107888
Mn	      6.29311      6.22231      8.39467         0.023574     -0.010690      0.049851
V	      8.28519      8.34238      8.41429         0.032305      0.030453     -0.102835
Fe	      2.14992      6.18709      4.25885        -0.018713      0.039651     -0.163818
Ni	      6.25234      0.05492      6.28796        -0.108490      0.044418     -0.051287
Ni	      2.08610      2.07930      0.03429         0.011209      0.022675     -0.075698
Ni	      4.14121      0.07417      4.20741        -0.078348      0.071675     -0.012290
O	      2.25681      2.07571      2.08500         0.012997     -0.012459      0.083537
O	      4.18444      4.01441      2.03882         0.019231     -0.020332      0.050545
O	      4.17786      2.18337      4.02478         0.037025      0.040834     -0.050550
O	      6.18016      4.20442      4.41555        -0.043537      0.014480      0.037195
O	      6.30255      2.18702      6.30445        -0.173291      0.070171     -0.007296
O	      8.25163      4.16846      6.23966        -0.029834      0.101705      0.140091
O	      2.22208      4.21688      4.22063        -0.028506     -0.156525      0.006502
O	      4.13367      6.12287      4.19550         0.147327      0.043683     -0.009522
O	      4.33175      4.16870      6.48789         0.000388     -0.004052      0.004999
O	      6.30595      6.09456      6.47582         0.014113     -0.016600      0.039130
O	      6.19018      4.16580      8.28785         0.104048     -0.096502      0.046752
O	      8.33851      6.41263      8.47687         0.030576     -0.135135      0.002173
O	      2.05025      6.31341      6.18216         0.107264     -0.070120      0.103390
O	      4.17428      8.37548      6.42164         0.139310     -0.108987     -0.004118
O	      4.19741      6.30293      8.44633        -0.039399      0.085861     -0.147521
O	      6.33201      8.31384      8.33670        -0.154276      0.087042     -0.025444
O	      6.31360      6.24401     10.38740         0.030888      0.011584     -0.052070
O	      8.41233      8.37571     10.29660        -0.013021     -0.032705      0.088621
