# total energy = -212.97491461 eV
 
CRYSTAL
PRIMVEC
-0.002677 6.053351 6.013079 
6.148196 0.003840 6.006476 
4.156559 4.090584 -0.056472 
PRIMCOORD
36 1
Li	      8.16545      2.06981      5.92499         0.007451      0.001966     -0.062214
Li	      4.13161      2.07434      2.03888        -0.132143      0.009631     -0.088592
Li	      6.10464      1.99576      4.02794        -0.018189      0.002003      0.055052
Li	      2.09244      4.07717      2.01555         0.077466      0.055418     -0.001642
Li	      2.10818      2.07735      4.03096         0.034340     -0.069169      0.050152
Li	      4.02692      4.01129      3.98050         0.009330     -0.086758      0.068971
Li	      4.11151      2.00026      5.94413        -0.016838      0.035297      0.052269
Li	      2.11591      6.04861      3.97981        -0.006584      0.046549     -0.014650
Li	      6.20499      6.08990      8.00220         0.139456     -0.005609      0.019523
Mn	      4.12861      0.06510      4.01415        -0.083887      0.156376      0.109961
Mn	      4.15838      6.10347      1.97828        -0.141919      0.262107     -0.041907
Mn	      6.18032      8.09179      5.91704         0.246762     -0.376517      0.108141
Mn	      8.26116      8.10418      7.99625         0.079500     -0.375933     -0.345424
V	      6.15744      4.10503      2.00680        -0.158385      0.250976      0.028914
Ni	      6.11082      0.03937      5.97857        -0.029687      0.039432      0.060204
Ni	      6.22635      4.06972      5.94671        -0.334535      0.221565     -0.108099
Ni	      0.04741      4.05271      3.98764        -0.033497      0.010399     -0.232316
Ni	      4.12817      6.10286      5.89038        -0.153659     -0.019319      0.158493
O	      1.95979      1.85478      1.95492         0.269580      0.432606      0.067750
O	      4.19050      4.17729      1.96038        -0.446906     -0.203302      0.286610
O	      4.12461      1.89850      3.95624        -0.110013      0.177651      0.060059
O	      6.32135      4.04798      3.90886        -0.218685     -0.009495      0.195683
O	      6.16433      2.05671      6.15080        -0.041176     -0.152273     -0.440777
O	      8.22998      4.06637      5.80522         0.182095     -0.008849      0.458267
O	      2.05667      4.05165      4.15339         0.406129      0.030871     -0.567876
O	      4.16272      6.12108      3.86845         0.107314     -0.356714      0.106656
O	      4.01454      4.07964      6.10283        -0.028295     -0.291260     -0.413546
O	      6.11341      6.16548      6.03396         0.498877      0.232843     -0.044159
O	      6.26278      3.93540      7.94902         0.153983      0.118733      0.202279
O	      8.40481      6.20503      8.01048        -0.225308     -0.426854     -0.147445
O	      2.06522      5.96925      6.07004        -0.106384      0.024929     -0.421044
O	      4.28946      8.11693      5.94816        -0.391134      0.105402      0.418439
O	      3.98185      5.98730      8.06278         0.516614      0.407322     -0.151964
O	      6.12870      8.26581      7.86202        -0.167922     -0.487950      0.297832
O	      6.00794      6.06598      9.99470         0.377059      0.273060     -0.461646
O	      8.28002      8.20684      9.86499        -0.260809     -0.025134      0.738047
