# total energy = -203.90950229 eV
 
CRYSTAL
PRIMVEC
-0.006306 6.210459 6.258184 
6.230360 -0.011722 6.263448 
4.145033 4.135346 0.000916 
PRIMCOORD
36 1
Li	      4.11787      6.21449     10.38247         0.022229     -0.011889      0.025184
Li	     10.30568      6.30256      8.40687         0.013044      0.043653      0.039171
Li	      8.19401      4.18827      8.44487        -0.010461     -0.034307      0.022947
Li	      6.18034      6.21449      4.18315        -0.004553     -0.007765     -0.047108
Li	      8.20770      6.26522      6.31010        -0.019438      0.014226      0.023121
Li	      6.13677      4.23092      6.29793        -0.018664      0.004017      0.012083
Li	      0.04706      4.06644      4.08887         0.025102      0.017380      0.022907
Li	      4.25582      6.09841      6.23910         0.032841     -0.045311     -0.036570
Li	      4.20561      4.11663      8.38139        -0.033139      0.006885      0.050107
Mn	      6.22099      6.14294      8.29057         0.002496     -0.018994     -0.013591
V	     10.27283      4.21660      6.31571        -0.144154     -0.067209      0.129037
V	      2.12578      8.25052      6.26069         0.093346      0.064075      0.150012
Co	      4.15109      4.14937      4.24385        -0.034997      0.287941      0.072859
Cu	      6.18918      2.13702      4.17393         0.094362      0.014237      0.139977
Ni	      2.11246      6.15820      4.10757        -0.022236      0.064753      0.033314
Ni	      6.30446     10.28438      8.38262        -0.014312      0.022725     -0.095919
Ni	      4.16220      8.23471      8.37341        -0.068986      0.033992     -0.155290
Ni	      2.12996      4.07010      6.21684        -0.143095      0.056408     -0.053917
O	      2.11455      2.01824      1.86852        -0.056460      0.029029      0.015621
O	      4.19438      4.07647      1.92040        -0.023911     -0.012251      0.087697
O	      4.19017      2.26530      4.12945         0.097894      0.009752      0.088601
O	      6.11432      4.09592      4.14606        -0.095067     -0.042057      0.020410
O	      6.29207      1.87540      6.38966        -0.036762      0.100806      0.035550
O	      8.46976      4.06320      6.25002         0.003500      0.028364      0.017376
O	      2.23593      4.12874      4.20248         0.046441     -0.147976     -0.134255
O	      4.13823      6.00560      4.12178         0.104133     -0.130925     -0.009660
O	      4.14812      4.12357      6.03968         0.113141     -0.076779     -0.138238
O	      6.21894      6.19011      6.42812         0.021554     -0.114924      0.025813
O	      6.20086      4.27776      8.37636        -0.038044      0.074596      0.047244
O	      8.12130      6.22312      8.36912        -0.067104      0.032085     -0.065341
O	      1.94997      6.23109      6.25854         0.040492     -0.004587     -0.032465
O	      4.10455      8.42460      6.20551        -0.000704     -0.049698     -0.092610
O	      4.22177      6.21923      8.37817         0.162451     -0.155616      0.009675
O	      6.19766      8.19499      8.23911         0.148500     -0.150644     -0.009212
O	      6.24436      6.29375     10.57108        -0.082568      0.069136     -0.088052
O	      8.23303      8.24325     10.67048        -0.106870      0.096872     -0.096479
