# total energy = -45.34736173 eV
 
CRYSTAL
PRIMVEC
0.000084 2.089486 2.089544 
7.992996 -0.000357 0.000682 
-0.000260 2.089494 -2.089552 
PRIMCOORD
8 1
Li	      2.05394      2.09215     -0.00162        -0.043292     -0.005025      0.007470
Li	      5.94063      2.08966      0.00460         0.044752      0.000420     -0.008740
Mn	      0.00101      0.00154     -0.00086        -0.001131     -0.001953      0.007138
Ni	      3.99730      2.08925     -2.08540        -0.000342      0.003118     -0.006958
O	      6.11276      2.08955     -2.08716         0.051916      0.002710     -0.000807
O	      0.00085      2.09089     -0.00089        -0.000267     -0.001581      0.006065
O	      1.88204      0.00152     -0.00042        -0.051924     -0.000771      0.002303
O	      3.99732      2.08920      0.00415         0.000287      0.003082     -0.006470
