# total energy = -92.49784809 eV
 
CRYSTAL
PRIMVEC
-0.000509 2.071774 2.071814 
8.189140 -4.233586 4.231612 
1.998220 2.089015 -4.161367 
PRIMCOORD
16 1
Li	      2.16143      1.97327      0.09650         0.023738      0.003112      0.000403
Li	      2.04755     -0.02349      2.09173        -0.000821     -0.000010      0.000951
Li	      3.93196      0.06847     -0.07444        -0.024119     -0.002988     -0.000459
Li	      6.14195     -2.14039      4.20811        -0.000520      0.000596      0.000041
Mn	      0.07218      0.01949     -0.02108         0.040778     -0.011394      0.008739
Mn	      6.02124      2.02241      0.04351        -0.054293      0.007222     -0.004010
Ni	      6.13871     -0.05305      2.12060         0.000613      0.080277     -0.081018
Ni	      8.14342     -2.13886      2.13382         0.002737     -0.078580      0.078299
O	      1.98789      2.23260     -2.23492         0.112481      0.037196     -0.039735
O	      6.10218      0.02562     -0.03187        -0.001565      0.081156     -0.080591
O	      6.07567     -2.08074      2.07707        -0.138228     -0.120854      0.112718
O	      8.20649     -0.11105      2.17726         0.137385      0.120445     -0.110845
O	      8.17975     -2.21744      4.28609         0.004375     -0.081512      0.077688
O	      1.89792      0.01813     -0.01847        -0.052736      0.010156     -0.015641
O	      4.19493      2.02367      0.04071         0.061701     -0.008159      0.016392
O	      4.10521     -0.19086      2.25750        -0.111528     -0.036662      0.037069
