# total energy = -203.76150755 eV
 
CRYSTAL
PRIMVEC
0.040844 6.214028 6.146870 
6.233034 0.032146 6.155448 
4.180103 4.172848 -0.003566 
PRIMCOORD
36 1
Li	      6.26791     10.38318      8.16258        -0.004861     -0.031373     -0.009686
Li	      8.42191     10.34251     10.26533         0.015052      0.026463      0.003333
Li	      6.35946      8.31066     10.27056        -0.013423      0.005393     -0.059456
Li	     10.25372      6.31934      8.14141         0.002627     -0.045269     -0.017885
Li	      8.33103      4.32834      8.12800         0.068370     -0.004717      0.000697
Li	      8.35518      6.32348      6.35677         0.005437      0.017082     -0.043766
Li	      4.18115      6.16362      6.19686        -0.013547      0.002895      0.047569
Li	      4.24421      4.04400      8.12329        -0.069395     -0.000954     -0.024010
Li	      6.41494      6.19117      8.19401        -0.022746      0.151478     -0.037446
Mn	      8.27485      2.12423      6.18296         0.084116     -0.245180      0.228390
V	      4.30411      8.17218      8.21922         0.129196     -0.002156      0.172825
V	      6.17383      6.21045      4.10591         0.358316      0.229615     -0.184175
Co	      6.25495      4.18268      6.19516         0.125128      0.094437      0.970406
Cu	     10.38408      4.22157      6.19213        -0.257996      0.212190      0.046034
Cu	      6.25250      4.25539     10.14934         0.010507     -0.111819     -0.163092
Cu	      2.19440      4.16367      6.20298         0.375762     -0.126358     -0.014163
Ni	      4.19180      4.18564      4.04894        -0.113579      0.008822     -0.051066
Ni	      8.29419      6.30144     10.18215         0.168629     -0.134938      0.120443
O	      6.27213      6.17718     10.39956        -0.138767      0.135519     -0.161931
O	      2.19007      2.05351      2.04322        -0.187563      0.037120     -0.038928
O	      4.16029      3.99442      2.01659        -0.027479      0.191021     -0.010793
O	      4.01863      2.14660      3.92710         0.027543     -0.080713      0.189397
O	      6.25329      4.29300      4.18751         0.076651     -0.182361     -0.308677
O	      6.37211      2.26490      6.13875        -0.219087     -1.058300     -0.194484
O	      8.21069      4.03774      6.14566         0.813729      0.260115     -0.080632
O	      2.10467      4.09154      4.26497        -0.080109      0.056820     -0.377957
O	      4.35161      6.32998      4.01018        -0.256476      0.052353      0.009079
O	      4.33948      4.18436      6.05848        -0.880007     -0.013054      0.149881
O	      6.31476      6.15256      5.99882         0.022526      0.579877      0.012404
O	      6.23772      4.21784      7.99267        -0.082778      0.117468      0.085864
O	      8.34150      6.26961      8.25782         0.003577      0.048777     -0.267143
O	      2.07052      6.35187      6.10305         0.070999      0.032548      0.207337
O	      4.01402      8.26072      6.34211        -0.047640      0.088269     -0.412409
O	      4.20602      6.43045      8.23973        -0.003835     -0.518022     -0.008248
O	      6.12064      8.32164      8.11816         0.127736      0.006261      0.370548
O	      8.44939      8.31068     10.42347        -0.066613      0.200689     -0.148258
