# total energy = -204.71825998 eV
 
CRYSTAL
PRIMVEC
-0.014287 6.103499 6.090899 
6.450795 -0.044358 6.120986 
4.284587 4.072502 -0.013352 
PRIMCOORD
36 1
Li	     10.70747     10.10857     12.17485         0.047305      0.051497      0.062207
Li	      2.16980      8.14412      6.10512        -0.035881      0.025483      0.025468
Li	      4.28643      1.99869      2.10021        -0.035544      0.009275      0.022352
Li	      6.35241      1.95702      4.03965        -0.029559     -0.044760      0.017931
Li	     10.67246      6.06576      8.16234        -0.013178     -0.001459     -0.046913
Li	      2.21160      4.05775      2.02815         0.020142     -0.022615      0.007523
Li	      2.21049      2.03545      4.07813         0.061778      0.014514     -0.012610
Li	      4.26690      4.01376      4.05517        -0.010628      0.007051     -0.033351
Li	      6.47596      6.10784      8.15484         0.076146     -0.016280     -0.037001
Mn	      0.01772      4.08106      4.05956        -0.029726     -0.081279     -0.098246
V	      6.25351      4.18254      2.11693        -0.258411      0.139669      0.013375
V	      6.49042      4.00495      6.11487         0.100406     -0.128198      0.040083
Co	      4.30877      2.01459      6.07515         0.078209      0.044989      0.157221
Cu	      4.34987      6.10878     10.16549         0.020197     -0.048273      0.079694
Cu	      8.57773      6.05623     10.15273         0.076404      0.050028     -0.108471
Cu	      6.36224      8.10235      6.11945        -0.030244     -0.095497      0.124049
Cu	      4.28344      4.04574      8.12706         0.004000     -0.152776     -0.065504
Ni	      4.24964      6.11227      6.10330         0.009278     -0.080165      0.080731
O	      6.62457      5.95539     10.17023        -0.024737      0.092622     -0.014927
O	      8.77719      8.14670     10.08784         0.081650      0.069425      0.295882
O	      2.17623      1.87152      2.07319        -0.016509     -0.062557     -0.005452
O	      4.47134      4.03872      2.02865         0.125974     -0.005110      0.016990
O	      4.30328      1.95153      4.20106        -0.011468      0.105219      0.063015
O	      6.34967      4.02120      3.98971         0.016472      0.021431     -0.004904
O	      6.49451      2.19353      6.06621         0.013431      0.084136     -0.035987
O	      8.48947      4.12902      6.08020        -0.081275     -0.109460     -0.069749
O	      1.96418      4.06379      4.12723        -0.030231     -0.032052     -0.045631
O	      4.11126      6.21537      4.06520        -0.077628      0.078997     -0.110811
O	      4.43128      4.00263      6.12277         0.074651      0.026297     -0.264980
O	      6.35433      5.93919      6.06869         0.029931     -0.005991      0.012065
O	      6.37817      4.03679      8.13028         0.273737      0.032171      0.117389
O	      8.58607      6.13148      7.91499        -0.054145     -0.190651     -0.219495
O	      2.20479      6.06053      6.33558        -0.017203     -0.089792      0.067670
O	      4.19734      8.13313      5.93083        -0.127766      0.084457     -0.127631
O	      4.15623      6.04298      8.18318        -0.036662      0.194906      0.080960
O	      6.52066      8.20235      8.07146        -0.188916      0.034748      0.017057
