# total energy = -204.28289765 eV
 
CRYSTAL
PRIMVEC
0.069748 5.897644 6.188951 
6.768784 0.019568 6.238436 
4.543713 3.988262 -0.013058 
PRIMCOORD
36 1
Li	      6.93086      5.97516     12.30264         0.055764     -0.089919      0.122026
Li	      6.79965      4.03210      2.20325         0.032940      0.027129     -0.151977
Li	      8.80067      3.96446      4.10713        -0.107121     -0.019241     -0.059787
Li	      4.54387      5.96829      2.13716        -0.052903     -0.099907      0.022235
Li	      6.65353      5.92910      4.16535         0.018506      0.154916     -0.060334
Li	      4.62256      4.02238      4.07507        -0.103442     -0.030967     -0.022456
Li	      0.15786      3.90123      4.06638        -0.039923     -0.074147      0.108251
Li	      2.32772      3.95482      6.11929        -0.044662      0.008294      0.009796
Li	      4.34290      5.81840      6.08248        -0.093547     -0.007510      0.069764
Mn	      2.45012      5.92087      4.10764         0.215479     -0.247619     -0.007747
V	      4.60619      7.84125      7.97628        -0.293523     -0.270591      0.039290
V	      4.50148      1.98916      6.09212        -0.070444      0.375987      0.056655
Co	      2.36765      3.94867      2.08064         0.173583     -0.015276      0.006803
Cu	      9.12567      7.96256     12.34849         0.141262     -0.023114     -0.041090
Cu	      6.81652      2.05112      4.17309         0.044435     -0.038986     -0.104412
Cu	      6.81382      3.97519      6.22721        -0.003717     -0.267656     -0.091540
Cu	      4.60112      4.01361      8.35809         0.052698      0.299190      0.081099
Cu	      6.89745      5.91671      8.33023        -0.075298      0.260623      0.192994
O	      6.40817      7.89017      8.37594         0.181724     -0.104898      0.016243
O	      7.16829      6.03567     10.25710         0.033343      0.019459     -0.133833
O	      9.26097      7.92650     10.31730        -0.019451     -0.029733      0.052627
O	      2.47230      2.03585      1.93911         0.015922      0.113962      0.234759
O	      4.34571      3.74757      2.10483        -0.088497      0.163912     -0.006542
O	      4.36174      1.94762      4.37794        -0.080810     -0.033459     -0.038855
O	      6.71496      3.95770      4.25066        -0.065051     -0.008464      0.337071
O	      6.43780      2.04682      6.20055         0.038725      0.218713      0.115379
O	      9.22800      4.06446      6.36261         0.178619      0.036002      0.022139
O	      2.29161      4.01306      4.01215        -0.045875      0.160685     -0.060304
O	      4.35528      5.90315      4.14578        -0.056652      0.072076     -0.016050
O	      4.39138      3.80960      6.43591        -0.079127     -0.285031     -0.365781
O	      7.12861      5.90103      6.36229        -0.158238     -0.291074      0.103108
O	      7.19851      3.98660      8.21254         0.313755      0.220927     -0.353715
O	      9.29830      5.97348      8.34914         0.037268     -0.428047      0.231911
O	      2.28522      6.00010      6.00384        -0.005075      0.060092     -0.218330
O	      4.74936      7.84976      6.26677         0.143314     -0.012647     -0.159760
O	      4.38393      6.01064      8.29904        -0.193983      0.186321      0.070365
