# total energy = -204.16662444 eV
 
CRYSTAL
PRIMVEC
0.056860 6.199821 6.194394 
6.182046 0.018607 6.233475 
4.139141 4.177543 -0.005642 
PRIMCOORD
36 1
Li	      2.07839      1.99679      0.17056         0.024428     -0.004172      0.054128
Li	      4.05962      2.14453      2.13695         0.004783     -0.028492      0.009637
Li	      6.09210      2.09653      4.06844        -0.019318     -0.034185     -0.031079
Li	      4.24070      6.13386      2.08727        -0.004882      0.019581      0.045263
Li	      2.19016      4.09167      2.05195        -0.002717     -0.031309     -0.009742
Li	      8.24007      6.24942      6.19992        -0.048046     -0.013758     -0.005502
Li	      2.07972      6.22916      4.19245         0.009086      0.047169      0.006207
Li	      2.12611      4.27704      6.25154        -0.032435     -0.028250      0.024124
Li	      4.04177      6.16776      6.25234         0.023748      0.031154     -0.006812
Mn	      6.26329      6.29887      8.21398        -0.040682      0.012980     -0.062344
V	      6.24536      4.01816      6.23421         0.000735      0.167967     -0.005193
V	      4.22454      8.20820      4.33814        -0.261274      0.055608      0.133227
Co	      4.20947      6.23348     10.32932         0.074638      0.003793     -0.044418
Ni	      6.19788      0.10871      6.30542        -0.113637      0.006389     -0.009226
Ni	      2.04350      0.06903      2.00188         0.096489     -0.166592      0.064766
Ni	      2.12578      2.08214      4.10025        -0.094924     -0.008451      0.176133
Ni	      4.08137      4.06535      4.06071         0.025830      0.139774      0.123205
Ni	      8.27750      8.29014      8.24298         0.054296      0.039139     -0.044589
O	      2.07962      2.04240      2.13522        -0.010137      0.171875     -0.098207
O	      4.16448      4.17683      2.11043        -0.086848      0.014308     -0.190046
O	      4.11828      2.00325      4.20133         0.107403     -0.180016     -0.022511
O	      6.31899      4.19324      4.26866         0.056322     -0.123043     -0.019914
O	      6.21366      2.25020      6.25355        -0.007652     -0.103396     -0.027735
O	      8.16617      4.17745      6.08325        -0.004828     -0.021765     -0.082826
O	      1.91287      4.16325      4.11894         0.052671      0.115945      0.012182
O	      4.13758      6.43595      4.12109        -0.078751     -0.003949     -0.002099
O	      4.36550      4.16605      6.06978         0.068911      0.011000      0.125420
O	      6.19514      6.12282      6.30419         0.009360      0.031392      0.054292
O	      6.23680      4.26678      8.11583         0.079992      0.020285     -0.009885
O	      8.12413      6.29439      8.28251        -0.025904     -0.179307     -0.034958
O	      2.04658      6.22468      6.20542         0.152602      0.004782     -0.130091
O	      4.17554      8.35321      6.06304        -0.001249     -0.070075     -0.088987
O	      4.24799      6.17075      8.38752         0.107694      0.136551      0.027240
O	      6.26030      8.19273      8.24369        -0.130963     -0.032708      0.041781
O	      6.14014      6.13452     10.26954        -0.024080      0.013142     -0.070603
O	      8.53639      8.47250     10.27487         0.039337     -0.013362      0.099162
