# total energy = -205.83633481 eV
 
CRYSTAL
PRIMVEC
0.041226 6.270106 6.076471 
6.189455 0.037447 6.080609 
4.152359 4.209399 -0.001479 
PRIMCOORD
36 1
Li	      2.23784      6.22611      8.09147         0.145584     -0.061011      0.004448
Li	      4.22945      8.27281      8.09837         0.012205     -0.104872     -0.042687
Li	      4.26084      6.21335     10.13925        -0.105244     -0.063515     -0.066885
Li	      6.30188      8.30214     10.19501         0.031633      0.087022     -0.068092
Li	      6.13224      2.24920      8.04407         0.023924      0.182208      0.151425
Li	      8.17781      4.29159      8.03305        -0.161842     -0.052852      0.139942
Li	      6.28697      4.15087      6.12126        -0.017945      0.007566      0.001323
Li	      6.11836      4.32916     10.11070         0.013193     -0.113340      0.038650
Li	      4.13011      6.36017      6.13921        -0.023028     -0.003615     -0.000152
Mn	      6.21498      8.41774      6.08501        -0.055940      0.100778      0.085151
V	      2.04592      2.06098      3.89113        -0.250372      0.055845      0.077914
V	      4.19488      4.20295      3.86270         0.063193      0.288932      0.412297
Co	      4.14014      4.21351      0.04061        -0.078837     -0.144546     -0.889755
Co	      4.15990      2.11603      6.06015         0.701580     -0.796352      0.434972
Cu	      8.23048      2.20555      6.05887        -0.034403     -0.016271      0.428688
Ni	      8.26596      6.37738     10.13252         0.433359     -0.093185      0.025070
Ni	      4.17979      4.24398      8.13335        -0.074563      0.121684     -0.067672
Ni	      6.19164      6.27722      8.16187        -0.065099      0.046455     -0.123547
O	      2.08385      2.12746      2.10136        -0.013412      0.024492      0.019542
O	      4.14684      4.18121      2.08697        -0.039846     -0.039322      0.354296
O	      4.06757      2.19262      4.10017         0.083356      0.014782     -0.542592
O	      6.11020      4.35006      4.10409         0.006196     -0.056196     -0.101694
O	      6.11555      1.97241      6.12263         0.559952      1.100429      0.019964
O	      8.40510      4.38213      6.11376        -0.991680     -0.409720      0.126625
O	      2.15157      4.14917      4.09587        -0.070871      0.002594     -0.009132
O	      4.23198      6.15442      4.08935         0.010009     -0.018858     -0.173997
O	      4.02937      4.08307      5.95208         0.092390      0.935871     -0.287993
O	      6.33229      6.45808      5.94276        -0.973031     -0.198773     -0.154889
O	      6.06588      4.27632      8.08316         0.271013     -0.283212      0.039986
O	      8.23678      6.47855      8.01811         0.256365     -0.072076      0.410279
O	      2.00631      6.14139      6.10360         0.970536     -0.051888      0.099139
O	      4.29119      8.49089      6.13036         0.035749     -0.822263      0.147137
O	      4.21265      6.13881      8.10044        -0.296085      0.178808      0.077340
O	      6.35917      8.35570      7.98686        -0.093388      0.144723     -0.007024
O	      6.28515      6.30678     10.29047        -0.298495     -0.012098     -0.544146
O	      8.30329      8.37683     10.22156        -0.066157      0.121780     -0.013933
