# total energy = -205.64184334 eV
 
CRYSTAL
PRIMVEC
0.004645 6.148004 6.433482 
6.209757 0.007669 6.431708 
4.135474 4.092500 0.009933 
PRIMCOORD
36 1
Li	      2.15988      0.10425      2.32916        -0.023677     -0.052813      0.040954
Li	      4.06785      6.13670     10.56648         0.005803     -0.018650      0.062753
Li	      6.34219      8.20410     10.70619        -0.068156      0.023307      0.030641
Li	      4.19060      6.07053      2.13666        -0.047606      0.034041     -0.093121
Li	      4.19640      4.12684      4.25822        -0.031980     -0.030995      0.072858
Li	      6.14023      4.12330      6.31160         0.002112     -0.046370     -0.018986
Li	      8.24777      6.21675     10.72798         0.040492     -0.075784     -0.010855
Li	      4.23317      4.24571      8.66363         0.038733     -0.043241     -0.014648
Li	      6.08605      6.11092      8.67208         0.057890     -0.019506     -0.014201
Mn	      6.23619      6.15091     12.80831        -0.052521      0.209525      0.252312
V	      8.17056      4.16912      8.58020        -0.219628      0.173433     -0.530711
V	      6.25213      8.20849      6.88676        -0.075425      0.170391      0.149907
Co	      8.28490      8.19270     12.81186        -0.106523     -0.111221     -0.396045
Co	      4.16085      2.08481      6.29880        -0.041222     -0.150790      0.179541
Cu	      6.16318      6.09162      4.29958         0.074716     -0.044197     -0.044952
Cu	     10.26959      8.17972     10.69251        -0.031079      0.081773     -0.118933
Ni	      4.07798      2.00718      2.25423         0.130357      0.101991     -0.030934
Ni	      4.18223      6.13132      6.50605        -0.087583      0.027465      0.027182
O	      2.06510      2.15533      1.85472        -0.119935      0.000400      0.342990
O	      3.99839      4.05760      1.95890        -0.002965      0.061396      0.004895
O	      3.91833      2.02463      4.30599         0.153549      0.073816      0.608231
O	      6.13287      4.24721      4.33465         0.033206     -0.089173      0.000867
O	      6.30769      1.90567      6.32800        -1.095594     -0.245722     -0.107574
O	      8.41554      4.02771      6.49710         0.205698      1.425855      0.066892
O	      2.04143      3.94240      3.98355         0.040112      0.066268      0.178253
O	      4.26557      6.21379      4.39568        -0.152928      0.019620     -0.140740
O	      3.97054      4.11218      6.48985         0.089491     -0.537110     -0.239861
O	      6.20940      6.36229      6.55937         0.294938     -0.077078      0.035694
O	      6.40330      4.06912      8.35866         0.157951      0.014204      0.047131
O	      8.32269      5.94931      8.50590         0.007419      0.114908     -0.333639
O	      1.98934      6.09924      6.43003        -0.038629     -0.937835     -0.008146
O	      4.21227      8.25686      6.55538         0.668924      0.136065      0.191867
O	      4.13783      6.18047      8.52144         0.004830     -0.146471      0.143393
O	      6.22329      8.22799      8.64185         0.049521     -0.021572     -0.025952
O	      6.23171      6.02786     10.89963         0.001906      0.016639     -0.112129
O	      8.34714      8.16955     10.91314         0.137801     -0.102568     -0.194934
