# total energy = -205.05748018 eV
 
CRYSTAL
PRIMVEC
-0.033611 6.499825 5.872113 
6.611182 -0.060726 5.895655 
4.347105 4.289915 0.021770 
PRIMCOORD
36 1
Li	      4.32837      6.45503      9.74126        -0.106875      0.040215     -0.009108
Li	      6.63250      8.66988      9.77908        -0.064103      0.108982      0.048310
Li	      2.43936      2.18205      3.93496        -0.029917     -0.363609     -0.010529
Li	      4.28340      3.93952      3.94904         0.137395      0.089226     -0.061591
Li	      4.48515      1.97238      5.80581        -0.005619      0.046205      0.044056
Li	     10.77097      8.57440      9.76903         0.073235      0.009891     -0.089852
Li	      8.78564      6.71439      9.79994        -0.038819     -0.081934      0.009022
Li	      8.61838      8.70237      7.95763         0.008738      0.044577     -0.074257
Li	      6.84787      6.55546      7.86642         0.030075     -0.031687     -0.010740
Mn	      4.24954      6.43273      2.04900        -0.130356     -0.018779      0.138352
V	      6.57125      6.43359     11.61713         0.226798      0.382804     -0.120982
V	      4.50300      6.25219      5.80090        -0.118611      0.327440      0.310876
Co	      6.49276      4.29306      2.14264        -0.001150      0.040332     -1.431673
Co	      2.15443      4.26272      2.07241         0.155477      0.260883      0.565888
Cu	      8.75242      2.16347      5.84286        -0.091998     -0.115566      0.098273
Cu	      4.59259      8.54508      7.94408        -0.150587     -0.003068     -0.097412
Cu	      6.55976      4.22520      5.83841        -0.055316      0.157889     -0.349663
Cu	      2.24485      4.38331      5.78164         0.287512     -0.147075      0.237402
O	      6.56635      8.73442      7.75883         0.015962     -0.185310     -0.145172
O	      8.74455      8.69441      9.83287         0.101923     -0.147355      0.306004
O	      1.89176      2.22995      1.93901         0.122240     -0.210558     -0.207477
O	      4.31184      4.47483      2.01728         0.220687      0.083605     -0.044803
O	      4.41613      1.99698      3.90068         0.053636      0.010162     -0.090472
O	      6.52883      4.27031      3.91890         0.004187     -0.199464      1.599314
O	      6.45834      1.90123      6.00813        -0.050868     -0.058769     -0.006830
O	      9.08385      4.12600      6.02138        -0.056741     -0.361364     -0.219563
O	      2.19406      4.08778      3.91425        -0.218881      0.248926      0.260982
O	      4.19456      6.59282      4.03299        -0.074707      0.045066     -0.144756
O	      4.24970      4.42446      5.86575        -0.353523     -0.398576     -0.020428
O	      6.31754      6.24245      5.94485         0.219645      0.025996      0.072587
O	      6.74761      4.04311      7.76201        -0.698660     -0.172163     -0.126020
O	      8.90619      6.14444      7.91987         0.049046      0.649520     -0.072704
O	      1.88471      6.73463      5.99652         0.105359      0.289405     -0.343924
O	      4.56040      8.92768      5.98218         0.093393     -0.348751      0.050934
O	      4.08173      6.56515      7.57213         0.245247     -0.047731     -0.117713
O	      6.59776      6.46892      9.88868         0.096175      0.030634      0.053669
