# total energy = -206.42788668 eV
 
CRYSTAL
PRIMVEC
-0.009386 6.281705 6.234520 
6.105035 -0.014030 6.238162 
4.067033 4.186582 -0.005465 
PRIMCOORD
36 1
Li	      6.13323      6.23530     12.32987        -0.028414     -0.033833     -0.032186
Li	      4.23704      6.25538     10.26695         0.002797     -0.043624      0.007634
Li	      6.08253      8.18315     10.27097        -0.000174     -0.019795     -0.071070
Li	      7.96908      4.23165      8.35064         0.028090      0.033499      0.008400
Li	      6.10351      4.24830      6.45961        -0.011818      0.077747     -0.000003
Li	      6.11913      4.35498     10.20612        -0.039434      0.064849     -0.002931
Li	      4.07133      6.31395      6.35960         0.015347      0.042055      0.066509
Li	      4.15848      4.22846      8.32831        -0.088922     -0.011676      0.002168
Li	      6.06140      6.12827      8.40314         0.000161     -0.055257     -0.054195
Mn	      8.17028      6.19716      6.28498        -0.003105      0.016943     -0.056179
V	      8.10919      2.16479      6.13087         0.060324     -0.056218     -0.152445
V	      4.14315      4.25406      4.20124        -0.055367     -0.052922      0.098654
Co	      2.02381      6.27177      8.29148         0.029646     -0.037253     -0.030631
Co	      4.05921      2.06863      2.09790         0.037969     -0.057851      0.006004
Ni	      6.07264      2.19739      8.30906         0.037581     -0.114080     -0.002315
Ni	      8.02978      6.23634     10.32047         0.093962      0.081734     -0.004563
Ni	      6.05289      8.39147      6.25184        -0.016300     -0.000427      0.002879
Ni	      2.03347      2.11701      4.17370        -0.072120      0.037238     -0.048484
O	      6.12345      6.26989     10.38594        -0.172149     -0.004410     -0.019728
O	      2.08210      1.95224      2.05024         0.077490     -0.038191     -0.028266
O	      4.12144      4.06286      2.22874         0.007895     -0.039300      0.022663
O	      4.06762      2.21744      4.14990         0.148730      0.015262      0.078035
O	      5.97798      4.21440      4.01213         0.043277     -0.050432     -0.013234
O	      6.18927      2.04417      6.28388        -0.022517     -0.034146     -0.113617
O	      8.12264      3.94488      6.24613        -0.015737      0.018592      0.009204
O	      2.16674      4.17398      4.17556         0.114833      0.018263     -0.067695
O	      4.02302      6.10847      4.11280         0.027431     -0.072260      0.064983
O	      4.11237      4.18495      6.01837         0.078760      0.054100     -0.065709
O	      6.24439      6.32542      6.18270        -0.026440     -0.084085      0.081236
O	      6.06002      4.13729      8.34151         0.021453      0.147706      0.009153
O	      8.14435      6.25649      8.19637        -0.112437     -0.046485     -0.100489
O	      2.01636      6.37296      6.34404        -0.006249      0.045936      0.094232
O	      3.92217      8.36189      6.41949        -0.084778      0.020428      0.009236
O	      3.93131      6.42256      8.33108        -0.050988      0.040755      0.038565
O	      5.97516      8.53784      8.24238        -0.029994      0.070325      0.178993
O	      8.15584      8.28398     10.61455         0.011195      0.066813      0.085193
