# total energy = -209.21106145 eV
 
CRYSTAL
PRIMVEC
-0.023933 6.162797 6.324190 
6.142057 0.017267 6.283414 
4.131943 4.118799 -0.025638 
PRIMCOORD
36 1
Li	      6.10680      8.21699     10.46886        -0.065428     -0.003294     -0.021144
Li	      2.08499      4.13834      2.26881        -0.006064      0.006223      0.036798
Li	      2.04348      2.20555      4.28563         0.042411     -0.007741     -0.051360
Li	      3.97409      4.09333      4.30388         0.002364      0.012297     -0.022980
Li	      6.07657      4.20918      6.24007         0.052130      0.005112     -0.069034
Li	      0.13390      4.14122      4.29375         0.022456     -0.024000     -0.026609
Li	      2.06946      4.07050      6.17634        -0.010548      0.004392      0.010493
Li	      3.99072      4.11319      8.26869        -0.022093      0.031348     -0.083578
Li	      6.20328      6.20612      8.23571         0.029464      0.018364     -0.036404
Mn	      6.13562     10.23147      8.42778         0.079474     -0.000151      0.093196
V	      8.22276     10.16640     10.50648        -0.036593      0.205032      0.032566
V	      6.05944      2.26980      8.46837        -0.008328     -0.166676     -0.006534
Co	      4.11953     10.26683      6.32332        -0.008585      0.061933      0.076874
Co	      4.11896      2.05738      2.12920        -0.021865      0.105797      0.009858
Co	      4.01155      2.17735      6.22472        -0.068589     -0.174263     -0.173305
Cu	      4.23177      6.07166      6.22902         0.014949      0.082051     -0.004743
Ni	      8.19396      2.08950      6.29554        -0.064945      0.082255     -0.006328
Ni	      8.12447      6.13207     10.48075         0.002443      0.081176      0.030299
O	      1.95454      1.93632      2.07272         0.032543      0.009301      0.066592
O	      4.23121      4.16234      1.95898        -0.076867     -0.092024      0.008170
O	      4.09735      1.91566      4.10026         0.087523     -0.115541      0.129703
O	      6.27179      4.09722      4.01362         0.013785     -0.051727     -0.052558
O	      6.13173      1.94050      6.43992        -0.035435     -0.070940     -0.028599
O	      8.34770      4.16782      6.16885        -0.020829      0.074072      0.008341
O	      2.03711      4.17380      4.17968        -0.002076     -0.015656      0.025162
O	      4.08037      6.16315      3.92848         0.045015     -0.011502      0.099908
O	      4.14021      4.11017      6.27843        -0.030602      0.102475     -0.007354
O	      6.18090      6.15498      6.28965         0.063112      0.010411      0.011626
O	      6.19485      3.97228      8.33310         0.006800      0.199973     -0.036837
O	      8.35851      6.20314      8.33362        -0.014619      0.007966      0.082251
O	      1.98012      6.19691      6.42143        -0.050600     -0.131747      0.049711
O	      4.03968      8.28384      6.49291         0.070549     -0.099391     -0.061268
O	      3.95454      6.16620      8.53451        -0.034421      0.017890     -0.006360
O	      6.08287      8.35274      8.42630        -0.054482     -0.002163     -0.037162
O	      6.07683      6.18863     10.69150         0.030475     -0.087815      0.061768
O	      8.21771      8.32155     10.54715         0.037475     -0.063440     -0.101159
