# total energy = -208.28894537 eV
 
CRYSTAL
PRIMVEC
-0.021445 6.111899 6.453170 
6.199594 0.009044 6.424995 
4.131878 4.052221 0.006966 
PRIMCOORD
36 1
Li	      4.17932      2.08483      2.23392         0.044229     -0.109385      0.072935
Li	      3.92539      0.08944      4.10570         0.021363      0.013762      0.037061
Li	      6.16169      8.21498     10.58688        -0.021284     -0.001215      0.010985
Li	      2.14823      2.04713      4.29412        -0.035685     -0.050412      0.128776
Li	      4.10639      2.10471      6.22692        -0.142653      0.047413     -0.140197
Li	      6.20131      4.05933      6.48846        -0.010443      0.062661     -0.021254
Li	     10.23549      8.07109     10.59500         0.038764      0.069671      0.171089
Li	      8.28241      8.04596      8.73016        -0.111962      0.099540     -0.007271
Li	      6.30818      6.06067      8.68268        -0.113436      0.171856      0.006866
Mn	      6.24540      8.11358      6.57179        -0.240178     -0.259163     -0.025865
V	      5.99856      0.06065      6.25584         0.095136     -0.192602     -0.809179
V	      4.24706      6.06818      6.64611        -0.211540      0.386618     -0.042714
Co	      8.24926      8.13579     12.78586         0.120408      0.091593     -0.133592
Co	      4.16727      4.04036      4.37670         0.095849     -0.141919      0.725114
Co	      2.09943      6.07951      4.41049         0.010282      0.009153      0.126214
Cu	      6.16435      2.10830      8.57970         0.027006      0.171994     -0.033631
Cu	      2.01112      4.04596      2.20884        -0.016265     -0.022481      0.029921
Ni	      6.12632      4.09198      2.18328         0.139635     -0.261756      0.029758
O	      6.27420      4.04767      8.60264        -0.011489     -0.469720      0.102436
O	      1.95426      2.06973      1.88815        -0.285411      0.332924     -0.268007
O	      4.06066      4.11812      1.79483        -0.039710      0.177897      0.549461
O	      4.12917      2.19353      4.23498        -0.103403      0.246480      0.026114
O	      6.02226      4.13511      4.18069        -0.145246      0.006486      0.054046
O	      6.31105      1.83732      6.25147        -0.361054      0.125652      0.017256
O	      8.36792      3.98788      6.18374        -0.093149      0.317917     -0.052336
O	      2.22423      4.10827      4.57721         0.078384      0.242701      0.123249
O	      4.02238      6.00559      4.63487        -0.130292     -0.065721     -0.074810
O	      4.11107      4.14237      6.61976         0.542172     -0.478693     -0.899910
O	      6.08937      6.13231      6.49803         0.463406     -0.359869      0.044307
O	      8.36132      6.00564      8.92829         0.259683     -0.070200      0.129353
O	      2.03639      6.16145      6.41187         0.015219      0.021496     -0.110241
O	      4.09721      8.16169      6.46770        -0.140207      0.231674     -0.095314
O	      4.01914      6.17406      8.43284         0.097363     -0.099565      0.120476
O	      6.18001      8.16464      8.44447        -0.001591     -0.021690      0.181384
O	      6.35352      6.01139     10.91370         0.101890      0.004637      0.049283
O	      8.26420      8.00879     10.87296         0.064208     -0.227732     -0.021765
