# total energy = -208.89522039 eV
 
CRYSTAL
PRIMVEC
0.007775 6.253587 6.195678 
6.248798 -0.006561 6.209952 
4.187487 4.200304 -0.026804 
PRIMCOORD
36 1
Li	      4.14619      4.25795      0.07492         0.033659      0.003779     -0.055734
Li	      6.24820     10.36423      8.14238         0.003911      0.082460     -0.024512
Li	      4.32127      8.28247      8.13317        -0.068896     -0.065945     -0.027579
Li	      8.39840     10.37844     10.31206         0.037394     -0.025616     -0.045989
Li	      6.33231      8.40668     10.21765         0.027098      0.019535     -0.053003
Li	      8.36412      4.22726      8.16396        -0.056574     -0.008951     -0.013340
Li	      8.39718      6.24584      6.24860        -0.030282     -0.010350      0.005045
Li	      4.18149      6.18143      6.28404         0.011722     -0.010939      0.064427
Li	      4.10668      4.24488      8.25022         0.066357      0.024570      0.027544
Mn	      8.27581      6.27210     10.36348        -0.091121      0.074303      0.071433
V	      2.35640      2.00489      4.01954         0.085236     -0.127015      0.041017
V	      4.10718      8.35697      4.19292        -0.150566      0.249669      0.004033
Co	     10.34201      6.28395      8.25794        -0.066654      0.101422     -0.130240
Co	      6.25076      4.16801      6.19436        -0.074348      0.074771      0.022316
Co	      6.18653      6.39135      8.26992         0.599226     -0.139598      0.429707
Ni	      2.06309      2.12523      0.05789         0.056037     -0.087359      0.083854
Ni	      2.18045      4.17647      6.26338         0.014972      0.014210     -0.015871
Ni	      4.18992      4.22611      4.06681         0.058317     -0.089008      0.128043
O	      2.10274      2.11240      2.22862        -0.042673      0.064189     -0.024962
O	      4.14212      4.43139      2.06239        -0.002092      0.201103     -0.095033
O	      4.09096      2.11333      4.05912         0.031673     -0.026332      0.010393
O	      6.25566      4.40436      4.04662         0.043780     -0.022911      0.046097
O	      6.26004      2.22527      6.36442        -0.097512     -0.024277      0.145544
O	      8.12690      4.14028      6.20932        -0.039958      0.148235      0.029497
O	      2.03418      3.95140      4.22126        -0.047355      0.030937     -0.098285
O	      4.08085      6.31947      4.01690        -0.079785     -0.052710     -0.120785
O	      4.30526      4.14864      6.08787         0.135706     -0.040433      0.043743
O	      6.27645      6.19023      5.97809         0.009095     -0.109338      0.002886
O	      6.23371      4.02386      8.48010         0.053594     -0.078374     -0.148859
O	      8.17503      6.23495      8.42439        -0.181695      0.193302     -0.116241
O	      2.11238      6.26100      6.07335        -0.090230     -0.020560     -0.035195
O	      4.19722      8.34040      6.02691         0.103271      0.055316      0.035954
O	      4.40165      6.23843      8.24285         0.025702      0.440558     -0.074065
O	      6.29976      8.36302      8.20440        -0.222642     -0.608263      0.055012
O	      6.30912      6.12837     10.34042        -0.034267     -0.156388     -0.101141
O	      8.43006      8.38493     10.39408        -0.020103     -0.073993     -0.065713
