# total energy = -211.31525791 eV
 
CRYSTAL
PRIMVEC
0.005271 6.164382 6.343070 
6.267019 0.029063 6.317627 
4.193499 4.108761 0.004314 
PRIMCOORD
36 1
Li	      8.30389      2.08771      6.32565         0.048705     -0.010595     -0.098268
Li	      4.12261      2.00269      2.14046        -0.072471      0.005121     -0.019509
Li	      6.15796      2.03734      4.33051         0.069532      0.137139      0.017070
Li	      6.22346      2.14826      8.39677         0.016534     -0.066981     -0.045569
Li	      8.37175      4.13874      8.28088         0.232599     -0.041145     -0.116633
Li	      4.11921      4.11043      4.36624         0.030410     -0.048407      0.206839
Li	      4.25752      2.04870      6.27650         0.050611      0.170747     -0.054926
Li	      6.21165      3.87774      6.37201        -0.178455      0.013131     -0.073710
Li	      4.20170      6.18596      6.28134        -0.074172     -0.124021      0.036081
Mn	      8.37082      4.13212      4.25714        -0.159098     -0.294490     -0.171705
V	      5.99485      4.16207      2.19859        -0.175975      0.116012      0.017930
V	      6.35119      6.15497      8.37514         0.756622     -1.287831     -0.376840
Co	      6.27697      0.07097      6.31339        -0.118065      0.039678      0.128904
Co	      2.25544      6.18627      4.22261         0.022669      0.123663      0.001743
Co	      2.09819      4.17900      6.39627         0.342933      0.153004     -0.047423
Co	      4.22001      4.13968      8.38865        -0.027574      0.115995      0.109575
Cu	      6.23970      6.22447      4.27649         0.120829     -0.122708     -0.059478
Ni	      0.09381      4.12846      4.21461        -0.162821     -0.115838      0.243893
O	      2.10106      1.77694      2.00849        -0.066932      0.020564      0.010814
O	      4.23426      4.09975      2.16041         0.123424      0.061417     -0.085225
O	      3.99662      1.92379      4.23967         0.013283      0.024799     -0.001090
O	      6.19793      4.02381      4.00651         0.028992      0.039708     -0.075618
O	      6.28432      1.92449      6.29181        -0.023590     -0.112680      0.013769
O	      8.53542      4.06407      6.18636         0.054133      0.095268      0.078521
O	      2.13487      4.15232      4.45436        -0.003379      0.033273      0.111836
O	      4.27075      6.22146      4.25740        -0.042498     -0.063329     -0.074673
O	      4.05186      4.16665      6.52072        -0.139841     -0.053415     -0.648012
O	      6.22274      6.35998      6.56609         0.053147      0.063001      0.740475
O	      6.39259      4.25186      8.36412         0.136575      1.431929      0.027083
O	      8.29868      6.30024      8.42647        -0.946938     -0.502101      0.131977
O	      2.03394      6.10453      6.47483        -0.090616     -0.154322     -0.007614
O	      4.34906      8.41687      6.28478        -0.069630      0.084053      0.023237
O	      4.25585      6.10533      8.55012         0.459525      0.622078      0.123350
O	      6.24086      8.35188      8.35121        -0.273181     -0.446095     -0.105386
O	      6.37754      6.25640     10.32985         0.053277      0.112152     -0.380543
O	      8.49605      8.29650     10.36564         0.011437     -0.018773      0.419123
