# total energy = -210.66193712 eV
 
CRYSTAL
PRIMVEC
-0.044441 6.628303 6.250560 
5.931748 0.002987 6.201877 
3.977727 4.411191 -0.021634 
PRIMCOORD
36 1
Li	      7.96416      2.41739      6.09515        -0.103213      0.020383      0.011325
Li	      5.99724      4.45190      2.20542        -0.078370     -0.038466      0.037676
Li	      3.90782      2.10083      2.17683         0.089787      0.015702      0.057375
Li	      3.97888      0.18003      4.24442        -0.007382     -0.008177      0.032714
Li	      7.89818      4.43105      8.19897         0.045210      0.014763     -0.034843
Li	      6.05273      6.43685      4.16429         0.032220     -0.060052     -0.030614
Li	      3.90304      4.24794      4.21511         0.071634     -0.020348     -0.050224
Li	      7.84617      6.32084      6.11461         0.092734      0.022448     -0.055533
Li	      6.06411      4.41801      6.13975         0.003320     -0.088574     -0.088541
Mn	      7.87270      8.80789      8.25421        -0.205687     -0.004824      0.239793
V	      0.12884      2.08509      1.97536        -0.056713     -0.070115     -0.444738
V	      3.94350      6.67872      6.23435        -0.129536     -0.000721     -0.040061
Co	      9.90291      4.41378      6.17519         0.008615      0.176611      0.068314
Co	      5.83955      2.52807      4.05141         0.605030     -0.572972      0.027485
Co	      3.95038      8.77857      4.11634        -0.193143      0.082540     -0.034308
Co	      7.87430      6.57928     10.32314        -0.138055      0.101814      0.034387
Cu	      1.93588      4.44751      6.22503         0.008422      0.041772      0.134355
Cu	      5.91450      6.59709      8.27616        -0.021586      0.115047     -0.060872
O	      1.85130      2.25416      2.15498         0.122020      0.049331      0.029655
O	      3.99843      4.72549      2.10583        -0.112900     -0.178830     -0.002839
O	      4.06303      2.19596      4.15814        -0.515048      0.119102      0.062381
O	      5.98603      4.32732      4.16939        -0.102196      0.497875      0.078292
O	      5.89199      2.24969      6.41038         0.015625      0.030538      0.207655
O	      8.01585      4.37251      6.20184         0.320230      0.008377      0.021762
O	      1.88419      4.62988      4.21840         0.031364      0.044847      0.008738
O	      3.87991      6.80575      4.11917         0.002698      0.027585      0.037022
O	      3.86110      4.66638      6.32786        -0.021423      0.007137     -0.104921
O	      5.79126      6.54886      6.21215         0.046583     -0.089212     -0.027240
O	      5.81611      4.15737      8.40514         0.092007     -0.014377      0.076025
O	      7.89931      6.55362      8.39782         0.002124      0.001829      0.081567
O	      2.01624      6.79068      6.07306        -0.141282     -0.065505     -0.052921
O	      3.98012      8.73953      6.06367         0.020373      0.129123     -0.082772
O	      3.95595      6.70002      8.17066        -0.074402      0.006562     -0.044679
O	      5.94523      8.95989      8.27367         0.099804     -0.056283     -0.363814
O	      5.95444      6.32706     10.29151         0.021595     -0.182472      0.279375
O	      7.83691      8.57451     10.23281         0.169544     -0.062459     -0.006977
