# total energy = -210.63730963 eV
 
CRYSTAL
PRIMVEC
0.034075 6.006443 6.276901 
6.257881 -0.008061 6.319965 
4.182832 4.045289 -0.016756 
PRIMCOORD
36 1
Li	      0.04343      5.96932      6.23312        -0.052231      0.029768     -0.056325
Li	      2.14689      8.00444      6.30351         0.037154     -0.058779     -0.041459
Li	      4.30507      5.98933     10.48661         0.028075      0.011466      0.031023
Li	      4.29296      6.00657      2.13528        -0.027255     -0.039472      0.132008
Li	      1.98519      2.00939      4.09219        -0.035769     -0.045842      0.011030
Li	      4.20241      8.03390      4.26644        -0.111176      0.027188      0.006872
Li	      8.34845      6.03299     10.52367         0.008041      0.070111     -0.000055
Li	      4.12936      6.06829      6.19526        -0.044744     -0.007530     -0.114993
Li	      6.29024      6.01656      8.54302         0.012628      0.012064      0.057585
Mn	      2.05688      4.01408      6.22806        -0.020040     -0.059621     -0.177886
V	      6.34321      4.06945      6.30250        -0.041643      0.560482     -0.083445
V	      8.41442      8.01024      8.45137        -0.059631     -0.075553      0.262653
Co	      6.23057      4.04450      2.06793         0.099547      0.031948      0.000850
Co	      6.32830      7.98772     10.48617        -0.212457      0.405403      0.302031
Co	      4.19058      4.09776      4.14164        -0.135516     -0.196858     -0.114656
Co	      4.20808      1.95253      6.25657        -0.386947      0.366910      0.218320
Ni	      4.17706      7.97014      8.34142         0.088788     -0.081064      0.063273
Ni	      2.10404      4.01367      2.14583         0.005521      0.131803     -0.004124
O	      2.15620      1.92685      2.08184        -0.203936     -0.083450     -0.042703
O	      4.26147      4.00776      2.11808         0.100585      0.092685     -0.011161
O	      4.33517      2.15113      4.16672         0.185018     -0.195080      0.407491
O	      6.23455      3.96609      4.15548         0.055396     -0.072359      0.099679
O	      6.25632      2.22629      6.30672        -0.095049     -0.391118     -0.874938
O	      8.26722      3.99648      6.40883         0.094236      0.697468     -0.154537
O	      2.18064      4.03473      4.27980        -0.060642     -0.183796      0.339478
O	      4.15845      5.88717      4.17487         0.090408      0.240513      0.023252
O	      4.15577      4.03600      6.35610         0.066373     -0.838545     -0.048794
O	      6.29347      5.98986      6.23128         0.181798     -0.073553     -0.005727
O	      6.20113      4.07264      8.30387         0.046901     -0.096159     -0.131007
O	      8.34309      6.15146      8.33528         0.063327     -0.044470     -0.200744
O	      2.08624      5.89722      6.45073         0.009108     -0.060625     -0.033595
O	      4.38439      8.00401      6.28526         0.174526     -0.019600     -0.187457
O	      4.03967      5.87853      8.39104        -0.039626     -0.016573     -0.044471
O	      6.32603      8.07513      8.23845         0.015124      0.113214      0.440935
O	      6.26375      6.17078     10.51517         0.085395      0.025829     -0.046645
O	      8.26642      8.02943     10.36412         0.078716     -0.176807     -0.021759
