# total energy = -214.89749901 eV
 
CRYSTAL
PRIMVEC
-0.039515 6.128409 6.251638 
6.284084 -0.009985 6.221083 
4.196981 4.072063 -0.013970 
PRIMCOORD
36 1
Li	      6.30075      0.06951      6.23102        -0.027642      0.045124      0.018332
Li	      2.13356      6.13497      8.38852         0.033898      0.021204      0.050239
Li	      4.13414      8.10278      8.32163        -0.027323     -0.067835      0.083413
Li	      4.08842      6.07891     10.28090         0.000983      0.002659     -0.105078
Li	     10.43669      6.11043      8.27872         0.040001     -0.015178     -0.016525
Li	      6.31200      6.02235      4.17791         0.021982     -0.081119      0.019504
Li	      8.35616      6.12052      6.25366         0.050816      0.038146     -0.012003
Li	      6.29922      4.10475      6.22331        -0.017810      0.047092     -0.032983
Li	      6.24904      6.10634      8.29215        -0.079183     -0.015486     -0.010655
Mn	      6.21081      8.12561      6.27853         0.129168      0.008677      0.078300
V	      8.40384      3.98465      8.16471         0.160401     -0.006243     -0.225551
V	      6.10277      2.05279      4.12738        -0.261057      0.234852     -0.109875
Co	      2.10494      2.03552      0.01210        -0.116942      0.035334     -0.039192
Co	      4.22631      4.09403      4.12880        -0.311504     -0.152228      0.059743
Co	      6.25610      4.14011     10.35216        -0.026504      0.063148     -0.083213
Co	      8.37796      6.13135     10.35869        -0.245367      0.029419     -0.025670
Co	      4.15382      6.10502      6.25671        -0.008571     -0.116472      0.043235
Cu	      4.20472      4.05986      8.28407         0.045752     -0.098467     -0.073016
O	      2.09938      2.16426      2.10639        -0.031357     -0.064247     -0.007096
O	      3.97982      4.09277      2.11277         0.192924      0.085892      0.394737
O	      4.30631      1.95598      4.20400        -0.064852      0.347221      0.015697
O	      6.29824      3.92846      4.14199        -0.320699      0.114181      0.006449
O	      6.37251      2.04714      6.00019         0.059405      0.011439      0.204628
O	      8.41049      4.12704      6.37265         0.042568     -0.039065      0.042684
O	      2.09486      4.21009      4.05234         0.367563      0.086625      0.066252
O	      4.01522      6.13696      4.28635         0.132308     -0.441247      0.038727
O	      4.03092      4.12519      6.24430         0.057484      0.190465     -0.609167
O	      6.11046      6.21906      6.19641        -0.097254     -0.018872      0.005433
O	      6.54739      4.07827      8.32602        -0.120869      0.032311      0.271850
O	      8.41106      6.10120      8.41335         0.008691     -0.041631      0.142750
O	      2.15777      6.05551      6.14293         0.035500     -0.004011     -0.092654
O	      4.19574      8.07071      6.23198        -0.013412     -0.079389     -0.165867
O	      4.15859      5.99581      8.17896        -0.030584      0.234456     -0.216244
O	      6.15377      8.17207      8.53331         0.036356     -0.036961     -0.097272
O	      6.39620      6.23734     10.39345         0.146690     -0.218622      0.043168
O	      8.32759      8.07539     10.35832         0.238441     -0.131172      0.336920
