# total energy = -214.72534328 eV
 
CRYSTAL
PRIMVEC
0.006389 6.144816 6.242309 
6.267664 0.005565 6.242021 
4.199978 4.117611 -0.016781 
PRIMCOORD
36 1
Li	     10.40726      4.14923      6.23925        -0.006873      0.017022      0.033714
Li	      6.26040      4.12786      2.08847         0.010753      0.028610      0.029430
Li	      4.14440      6.12716      2.17003        -0.037649      0.024299      0.034491
Li	      6.17900      6.18954      4.16086        -0.021619     -0.027836     -0.103991
Li	      8.36558      6.19443      6.26306        -0.036355     -0.011602      0.017742
Li	      4.26318      8.11868      4.15216        -0.085042     -0.107963     -0.037856
Li	      2.17356      6.08740      4.11157         0.063587      0.069589     -0.015200
Li	      4.24882      6.09175      6.11520         0.021919      0.000106     -0.043878
Li	      4.18413      4.13358      8.25041        -0.014544      0.011308     -0.005063
Mn	      6.26388      4.11460      6.23896         0.004523      0.036169      0.287882
V	      2.17224      8.01973      6.23671        -0.111619      0.010486      0.003257
V	      6.33519      6.16828      8.33125         0.189896      0.007204     -0.147726
Co	      4.20579      8.23269      8.27681        -0.069391      0.094643      0.240158
Co	      4.21227      0.07373      4.15986         0.139718     -0.076870     -0.046393
Co	      6.32027      8.21420     10.39149        -0.023048     -0.108816      0.111486
Co	      2.08678      4.13113      2.17670        -0.036312     -0.053960     -0.387293
Co	      4.14867      4.14246      4.11411         0.041645     -0.346123      0.108343
Ni	      2.08599      4.11864      6.17820         0.061593     -0.057524      0.092480
O	      2.24534      2.05657      1.92808         0.151307     -0.039869     -0.221461
O	      4.16924      4.02410      2.13843        -0.650693     -0.060326      0.437399
O	      4.24740      2.16269      3.97283         0.060559      0.079236     -0.199704
O	      6.35748      4.09310      4.31190        -0.586020      0.117531     -0.134941
O	      6.44966      2.14336      6.31644         0.065628      0.141636      0.003022
O	      8.24101      4.05618      6.28994        -0.025142      0.016593      0.252475
O	      2.07450      4.05765      4.21768         0.994443      0.188795     -0.551879
O	      4.19442      6.00055      4.10836        -0.069794      0.008667      0.037285
O	      4.30961      4.06805      6.11771        -0.127462      0.019311     -0.293651
O	      6.28792      6.07117      6.31260        -0.001582     -0.062201      0.020047
O	      6.19812      4.19747      8.20304         0.350342     -0.170603     -0.112646
O	      8.16675      6.23145      8.32089        -0.152638      0.064410     -0.003789
O	      2.05347      6.25752      6.25359         0.010886      0.006613      0.004073
O	      4.04995      8.23687      6.32368         0.103055      0.000361     -0.000438
O	      4.32254      6.26678      8.30879         0.056257      0.035996      0.115595
O	      6.18340      8.18924      8.19057        -0.138228      0.074928      0.091824
O	      6.26306      6.20416     10.30660        -0.079066     -0.004873      0.122093
O	      8.42593      8.23714     10.63047        -0.053035      0.075054      0.263113
