# total energy = -201.52751822 eV
 
CRYSTAL
PRIMVEC
-0.012446 6.144032 6.348508 
6.148986 -0.001059 6.337307 
4.111218 4.100219 -0.012653 
PRIMCOORD
36 1
Li	      6.14332      0.06548      6.30339        -0.009339     -0.018468      0.024500
Li	      6.15548      4.07861      2.13081         0.073694     -0.005462     -0.078992
Li	      8.19897      4.08822      4.27843        -0.007473      0.049189      0.015475
Li	     10.17641      6.18699      8.42300        -0.044924     -0.022042     -0.002808
Li	      6.14990      6.16245      4.24125         0.045963      0.022230     -0.035309
Li	      8.20893      6.06544      6.46460        -0.024073      0.013057      0.116182
Li	      8.14384      6.13569     10.46769         0.013256     -0.020652     -0.072947
Li	      2.05092      4.10771      6.27585         0.021827     -0.001306     -0.046340
Li	      6.21019      6.12130      8.48325         0.033539      0.023744      0.002999
Mn	      6.17115      8.15327     10.57931        -0.064148     -0.165094     -0.171229
V	      4.07723      8.15904      8.47322        -0.017244     -0.183320     -0.044158
V	      4.10494      6.09709      6.20299        -0.092486      0.101735      0.161350
Cu	      8.13331      4.18839      8.45955        -0.081478      0.083323      0.089021
Cu	      6.17064      4.10094      6.35082         0.050341      0.060767      0.024858
Ni	      8.19836      2.06861      6.32442         0.077223     -0.057232     -0.008614
Ni	      4.08072      4.08240      4.16133        -0.177376      0.062335      0.008491
Ni	      6.17235      4.23287     10.55386         0.073217     -0.055249      0.258875
Ni	      8.19227      8.15069      8.47879        -0.118335     -0.063357      0.012845
O	      8.23953      6.15449      8.41873        -0.070010      0.181552      0.002297
O	      2.25141      2.03436      2.10191         0.021691     -0.087495      0.033805
O	      4.13013      3.88674      2.06548         0.047838      0.124369     -0.130251
O	      4.18200      2.00574      4.02951         0.029236     -0.075453      0.011896
O	      6.07303      3.94315      4.15381         0.169983      0.097047      0.246045
O	      6.16206      2.08683      6.15744        -0.168794      0.021250     -0.051949
O	      8.11355      4.07548      6.52777        -0.039510      0.038437     -0.490189
O	      2.07394      4.11259      4.06571        -0.057517     -0.091647      0.471705
O	      4.12093      6.18428      4.40323         0.020020      0.046655     -0.121306
O	      4.10462      4.23256      6.36626         0.009224     -0.184203     -0.041585
O	      5.97691      6.12864      6.32308         0.132162     -0.002629      0.016568
O	      6.06981      4.06329      8.60034         0.197188      0.073195     -0.425564
O	      2.28054      6.18383      6.36888        -0.069538     -0.090391     -0.013038
O	      4.15194      8.11843      6.43646         0.071244      0.007250     -0.003823
O	      4.11222      6.27426      8.31321         0.040824     -0.022158     -0.034059
O	      6.08303      8.17068      8.58332        -0.086608     -0.003486      0.117079
O	      6.12178      6.24442     10.63774        -0.022100      0.131423      0.099577
O	      8.09953      8.23562     10.55593         0.022482      0.012086      0.058595
