# total energy = -199.63022381 eV
 
CRYSTAL
PRIMVEC
0.050921 6.601392 6.329100 
6.086749 0.073154 6.305314 
4.055087 4.379913 0.051737 
PRIMCOORD
36 1
Li	      6.15747     10.87317      8.51509         0.056425     -0.091989      0.033274
Li	      6.13479      2.50342      8.39139        -0.182046     -0.078943     -0.009113
Li	      6.11204      6.54761      4.39096         0.003513     -0.056354      0.032076
Li	      7.96954      6.75993      6.33368         0.044220      0.002636      0.010863
Li	      6.06641      4.69318      6.44484         0.084300      0.056981     -0.042794
Li	      6.02793      4.46348     10.35907        -0.044494     -0.003800      0.094569
Li	      6.18250      8.60685      6.51231        -0.002415     -0.022074      0.001631
Li	      4.16184      4.39126      8.32676        -0.004988      0.036804      0.031032
Li	      6.12462      6.59854      8.25283        -0.022180     -0.001535      0.033988
Mn	      4.05825      6.63221     10.45195         0.165171     -0.056990     -0.277595
V	      4.05947      4.46169      0.17718        -0.085409     -0.045530      0.190441
V	      2.13585      6.35407      4.15945        -0.317889      0.178735     -0.096220
Cu	      2.03069      2.21791      0.07215        -0.139741     -0.009295     -0.278512
Cu	      4.12774      8.73676      8.43429         0.158261     -0.021391      0.152678
Cu	      8.00774      4.30660      8.41036         0.145206      0.122382     -0.075352
Cu	      4.19664      4.35958      4.35607         0.126162     -0.003512     -0.141383
Ni	      6.14513      8.83246     10.48257         0.050839     -0.028715      0.189214
Ni	      4.16411      6.49065      6.40271        -0.273340      0.078222      0.205907
O	      6.16965      4.44520      8.41109        -0.082113      0.004937      0.022565
O	      6.07129      8.83172      8.50186        -0.270894      0.041303     -0.266574
O	      2.05203      2.26473      2.04573         0.351713      0.074884     -0.049009
O	      3.97532      4.32170      2.02990        -0.055522      0.393512     -0.080400
O	      4.06557      1.97400      4.08264        -0.145741      0.160553     -0.127312
O	      6.12086      4.33762      4.25837        -0.352636      0.077169      0.007027
O	      6.14383      1.98358      6.34498         0.139617      0.257523     -0.038572
O	      8.30159      4.58801      6.10904         0.008010      0.037776      0.085233
O	      2.21572      4.60359      4.27602        -0.106626     -0.341157      0.034035
O	      3.84888      6.77402      4.38841         0.182115      0.202227     -0.100220
O	      4.12520      4.46761      6.24168        -0.034727     -0.090023      0.149245
O	      6.06988      6.67823      6.31305         0.201707      0.003008     -0.043007
O	      8.13124      6.67438      8.72999         0.034765      0.050048     -0.061695
O	      1.90976      6.54191      6.20270         0.096118     -0.066737      0.060330
O	      4.02771      9.02597      6.45397        -0.044237     -0.028757      0.043008
O	      4.08196      6.70412      8.48882        -0.052743     -0.765212      0.084617
O	      6.23793      6.67079     10.68880         0.213061     -0.033265      0.056275
O	      8.13687      9.05502     10.66497         0.156538     -0.033422      0.169749
