# total energy = -201.38110065 eV
 
CRYSTAL
PRIMVEC
-0.001742 6.830191 6.181513 
5.931079 0.060881 6.127615 
3.988047 4.546578 0.001650 
PRIMCOORD
36 1
Li	      5.92436      0.30471      6.18698        -0.029420      0.059806     -0.020386
Li	      3.92186      2.52872      1.96884         0.023772      0.018825      0.032483
Li	      6.03242      2.44694      4.15057        -0.071062     -0.006455     -0.035132
Li	      4.04169      6.59000      1.94189        -0.004981      0.031895     -0.044107
Li	      5.85510      6.90250      4.11541         0.080562     -0.014469      0.013093
Li	      4.06169      4.49777      4.02315         0.033903     -0.046287      0.051501
Li	      3.98685      2.44581      6.20451         0.048185      0.003483     -0.054659
Li	      5.91406      4.37298      6.14898        -0.010295     -0.071313      0.033057
Li	      4.02600      6.77639      6.25209         0.040995      0.023579      0.056748
Mn	      5.95532      9.02397      6.22347        -0.021020     -0.522703      0.376755
V	      3.94334      0.55532      4.11871         0.027045      0.233149     -0.078218
V	      2.15638      6.66754      4.20296         0.124745      0.340066     -0.744499
Cu	      1.93428      6.85271      8.15866         0.240744      0.096087      0.209727
Cu	      7.95976      4.58633      8.11194        -0.087243     -0.040260     -0.145924
Cu	      9.87653      9.17124     10.26960         0.161539     -0.017850     -0.100962
Cu	      7.96767      9.10521      8.21396        -0.024165     -0.062880     -0.015377
Cu	      5.92197      6.86804      8.18391        -0.240661      0.228928     -0.182208
Cu	      1.99826      2.29056      0.01274         0.022039      0.023202      0.087351
O	      3.92522      8.94290      6.09407         0.212775      0.002215     -0.015581
O	      3.92030      6.92497      8.38040        -0.286289     -0.080800     -0.032961
O	      6.02715      8.95097      8.15281        -0.084138      0.161102     -0.060553
O	      1.96948      2.59897      1.85000         0.047395      0.125178      0.402871
O	      4.00448      4.53945      2.03202        -0.111992      0.037199      0.030750
O	      3.95208      2.28992      4.06631        -0.069419     -0.102673     -0.041542
O	      6.12512      4.65669      3.94151        -0.036781      0.009693      0.016776
O	      6.09466      2.37938      6.11162        -0.411607     -0.058016     -0.075782
O	      7.91601      4.77692      5.83958        -0.039955      0.036436      0.011724
O	      1.91658      4.65389      4.30834         0.129507      0.490566     -0.048916
O	      3.88586      6.62786      4.13399        -0.699805     -0.086316      0.107550
O	      3.88061      4.52239      6.24209         0.057310      0.065158     -0.162146
O	      5.96460      7.11057      6.21892        -0.052686      0.120964     -0.123053
O	      5.88956      4.79773      8.28752         0.175590     -0.154185      0.104254
O	      7.88662      6.57598      8.36582         0.601295     -0.219653      1.265755
O	      1.93168      6.46368      6.16721         0.088021      0.050905     -0.748654
O	      5.79807      6.95102     10.17679         0.134740      0.101325      0.121433
O	      7.94480      8.74058     10.37445         0.031359     -0.775901     -0.191170
