# total energy = -207.64724582 eV
 
CRYSTAL
PRIMVEC
0.021791 6.274005 6.135605 
6.308711 0.022441 6.134484 
4.217290 4.193491 0.003480 
PRIMCOORD
36 1
Li	      0.17129      6.28106      6.15140         0.046568      0.006145     -0.000584
Li	      2.09734      6.27473      8.01678        -0.009518      0.022264      0.076418
Li	      8.41044      4.31071      8.08753        -0.013876     -0.004465     -0.018459
Li	      8.41721      6.25783      6.27336        -0.047493     -0.049536     -0.015878
Li	      2.08874      6.28327      4.14453        -0.034313      0.031180     -0.062596
Li	      2.21889      4.44050      6.15495         0.027444      0.053357      0.017053
Li	      4.03884      6.20345      6.17536         0.076568      0.042844      0.015280
Li	      8.48204      8.27453      8.11480        -0.002793     -0.032422      0.003607
Li	      6.43440      6.26522      8.13989         0.015134     -0.008691     -0.042915
Mn	      4.19158      4.22887      4.12561        -0.016961     -0.038165      0.077125
V	      4.31792      8.29719      8.04130         0.054611     -0.065027     -0.013667
V	      6.33034      6.34560      4.15345         0.027686     -0.151766      0.098667
Fe	      6.45625      8.25517     10.25662        -0.138939      0.129088     -0.102723
Co	      6.30898      4.19075      6.14426        -0.021031      0.091611      0.061444
Cu	     10.38524      6.36016      8.12104         0.033623     -0.150228      0.017971
Ni	      2.06983      2.04583      0.03238         0.036992      0.063702      0.087987
Ni	      8.43257      4.20102      4.15087         0.001736      0.049443     -0.123631
Ni	      6.30146      4.28142     10.17790         0.106253     -0.066800      0.039491
O	      2.12770      6.35185      6.12102         0.012792     -0.164368      0.016793
O	      2.29339      2.05035      2.20078         0.013172      0.034116      0.095711
O	      4.19503      4.06258      2.18809         0.013564      0.052139     -0.015487
O	      4.18817      2.11852      4.02878         0.075147      0.092151     -0.045514
O	      6.30865      4.18587      4.19232        -0.096751     -0.077730      0.005284
O	      6.29005      2.22377      6.13862        -0.130740      0.026099     -0.077486
O	      8.22903      4.10507      6.12787        -0.076763      0.143326      0.148608
O	      2.09767      4.03493      4.18251         0.080222      0.160758     -0.020814
O	      4.36621      6.33493      3.95014        -0.027165     -0.060219      0.172698
O	      4.32438      4.23703      6.02346        -0.014541     -0.038826     -0.057341
O	      6.34950      6.11886      5.97381        -0.016311     -0.058985     -0.014271
O	      6.29648      4.13578      8.08674         0.005079      0.026152     -0.142503
O	      8.47576      6.28990      8.21681        -0.120593     -0.053425      0.011651
O	      4.20693      8.42707      6.27488         0.104828      0.022926     -0.037351
O	      4.25618      6.52658      8.20057         0.000803     -0.004862     -0.057758
O	      6.15195      8.40681      8.25643        -0.021730      0.047740     -0.053557
O	      6.27813      6.33565     10.23520         0.051510     -0.013741      0.044357
O	      8.40214      8.44676     10.20156         0.005784     -0.055783     -0.087611
