# total energy = -206.80355339 eV
 
CRYSTAL
PRIMVEC
-0.008901 6.321484 6.110491 
6.330066 -0.038279 6.138949 
4.182927 4.196308 0.011785 
PRIMCOORD
36 1
Li	      6.24901      0.06102      6.03323        -0.025349      0.031348      0.007233
Li	      8.39979      8.43696     12.12079         0.014046      0.059668      0.096323
Li	      4.23885      2.10884      2.16518        -0.007699     -0.038064      0.035532
Li	      8.51787     10.34242     10.30341        -0.022723     -0.015970      0.031716
Li	      6.45536      8.28460     10.29416        -0.016008      0.000260      0.007078
Li	      2.11851      2.09543      4.06734         0.004969     -0.018776     -0.025110
Li	     10.27330      8.39078     10.18566         0.030024      0.063902      0.046508
Li	      8.39467      6.51661     10.19280        -0.049225     -0.014769      0.031930
Li	      8.36182      8.36539      8.38570        -0.076613      0.037678     -0.053306
Mn	      4.22494      2.11151      6.10900        -0.082738     -0.017481      0.022346
V	      2.20592      0.04198      2.14632         0.023017      0.042928      0.070705
V	      6.09926      8.46982      6.02329        -0.061078     -0.134992     -0.221892
Fe	      6.32425      6.24935      8.33757        -0.161228      0.066886     -0.255965
Co	      4.17065      6.27664      6.03268         0.137312      0.025799     -0.154717
Cu	     10.45874      6.33756      8.26002         0.053777      0.075652      0.104232
Cu	      2.12914      4.20013      2.06926         0.074545     -0.035641      0.193375
Ni	      6.31724      4.16891      6.12639        -0.028517      0.088356     -0.122496
Ni	      4.20569      4.15551      4.04969         0.025074     -0.077824     -0.020139
O	      8.37995      8.40989     10.28937         0.019213     -0.024986     -0.002279
O	      2.20999      1.79280      1.93362         0.023438     -0.158337     -0.092063
O	      4.32613      4.20563      2.01942         0.117698     -0.009093     -0.193924
O	      4.19140      2.11900      4.23189         0.021451     -0.094499      0.078717
O	      6.33096      4.14146      3.93336         0.108688     -0.030739     -0.067780
O	      6.13521      2.14887      6.25797        -0.019054     -0.067799      0.015839
O	      8.35972      4.34346      6.23990         0.077856      0.142229     -0.089397
O	      2.14184      4.16181      4.19639        -0.043211     -0.055125      0.074029
O	      4.25927      6.17170      4.09040         0.003921      0.125863     -0.069194
O	      4.17942      4.10874      6.08670        -0.035243     -0.126932      0.126953
O	      6.32330      6.39126      6.20347         0.101118      0.002861      0.010193
O	      6.43922      4.19458      8.16527        -0.100796     -0.011164      0.134086
O	      8.26059      6.38495      8.07510        -0.017020      0.098219     -0.092317
O	      2.15191      6.09592      6.15866        -0.096145      0.034791     -0.078577
O	      4.36189      8.35376      6.07425        -0.031911      0.078188     -0.021311
O	      4.07890      6.23281      8.01370         0.075993     -0.002952      0.140659
O	      6.25141      8.47825      7.97067        -0.007422     -0.071099      0.020915
O	      6.29914      6.30443     10.14320        -0.030160      0.031616      0.312099
