# total energy = -206.62696148 eV
 
CRYSTAL
PRIMVEC
0.020196 6.441494 6.132817 
6.214953 0.023021 6.129953 
4.148099 4.297163 0.011084 
PRIMCOORD
36 1
Li	      4.07168     10.55722      6.13704        -0.108065      0.104112     -0.059288
Li	      2.18337      8.60202      6.09245        -0.159348      0.044574      0.028112
Li	      8.28473      4.38779      4.23503         0.047623     -0.020860     -0.194093
Li	      2.27051      2.24704      4.11032        -0.104818      0.013427      0.034384
Li	      4.12959      4.21613      4.15318         0.019971      0.041025     -0.095334
Li	      4.13480      2.17650      5.97422        -0.008019     -0.133710      0.098811
Li	      4.14138      8.60873      4.19921        -0.002406      0.042302     -0.145571
Li	      2.03110      4.32945      5.99720         0.017979     -0.067198      0.091040
Li	      4.23615      4.30600      8.15350        -0.056758      0.096360      0.104245
Mn	      8.26006      6.46850     10.26241        -0.293108      0.086722     -0.265911
V	      6.23958      2.17157      8.13528        -0.069394      0.043239     -0.122681
V	      6.17301      6.63250      8.12352         0.412536     -0.592522      0.254961
Fe	      6.17139      4.28176      2.08695         0.335032     -0.315442      0.026272
Co	      6.25263      4.32750      6.08793        -0.210545      0.344295     -0.129234
Cu	      4.07988      2.17993      2.05024        -0.029921     -0.040349      0.011567
Cu	      6.18648      2.16263      4.18465         0.086821     -0.079189      0.087810
Cu	      2.09492      4.29639      2.03996         0.121887      0.102018     -0.029682
Cu	      4.16643      6.48565      6.07659         0.258671     -0.090852      0.164434
O	      4.13031      8.46390      6.25406         0.037010     -0.301579      0.090735
O	      8.13886      8.36920     10.30688         0.116886     -0.015363      0.048773
O	      1.96746      1.94966      2.10636        -0.154611      0.097285      0.008176
O	      4.19054      4.44306      2.01992        -0.249447      0.299584     -0.071099
O	      4.23196      2.18570      3.99026         0.051947      0.055269     -0.111440
O	      6.29440      4.20325      4.03417        -0.023748     -0.088135      0.324180
O	      6.05409      2.22296      6.34338         0.021394     -0.041831      0.054704
O	      8.13762      4.27143      6.20185         0.142139     -0.124960      0.017809
O	      2.09398      4.48657      3.99771         0.024844     -0.047213      0.081964
O	      3.95132      6.58132      3.88788         0.192882     -0.017622      0.007228
O	      4.39246      4.52545      6.07572         0.030594      0.177142     -0.114409
O	      6.30052      6.48143      6.29749        -0.014938      0.004915     -0.758633
O	      6.28517      4.34560      8.05924         0.055604     -0.298040      0.159870
O	      8.17925      6.56588      8.31099         0.725557      0.049569      0.110716
O	      2.13824      6.35164      6.13966         0.029898     -0.059588     -0.124097
O	      4.41026      6.35484      8.33111        -1.039380     -0.097276      0.179620
O	      6.25022      8.44705      8.08902        -0.183242      0.867398     -0.158533
O	      6.33493      6.41087     10.11568        -0.021524     -0.037507      0.394592
