# total energy = -206.99414096 eV
 
CRYSTAL
PRIMVEC
0.021301 6.241724 6.242121 
6.351139 0.025322 6.237765 
4.243526 4.167471 0.007611 
PRIMCOORD
36 1
Li	      4.37174     10.31188      6.32540         0.050679     -0.037385     -0.056847
Li	      4.31219      8.43492      8.24561        -0.047695     -0.016861     -0.077545
Li	      4.16212      6.15622      2.22109        -0.092085      0.088303      0.023904
Li	      8.48728      6.23106      6.34521        -0.018860     -0.009530      0.089435
Li	      4.39235      8.21930      4.23914         0.077199     -0.037697      0.001231
Li	      2.21912      6.15908      4.12035         0.089691     -0.045220     -0.069067
Li	      6.23561      8.43169      6.22622        -0.082467      0.046678     -0.064709
Li	      8.40012      8.19903      8.36473        -0.011783     -0.186466      0.014385
Li	      6.49982      6.35806      8.31464         0.123168      0.004899      0.002834
Mn	      6.36934      8.34662     10.37072        -0.004497     -0.089291     -0.225740
V	      4.31704      6.29818     10.26478        -0.060344     -0.016666     -0.165355
V	      6.25774      4.21476      6.43763        -0.319399      0.261722     -0.421740
Fe	      2.25343      8.28290      6.27745         0.102697      0.030603      0.185301
Co	      2.22142      4.22477      2.08241         0.230084     -0.432133      0.421754
Ni	      6.28104      4.15764      2.04856        -0.232110      0.187692     -0.210586
Ni	      4.22717      6.28907      6.20912         0.022824      0.011072      0.191431
Ni	      2.07194      2.14597      4.11045        -0.006313      0.094331     -0.029018
Ni	      4.19005      4.21595      4.11459        -0.365298      0.029498     -0.009911
O	      2.11506      2.24737      2.03075         0.096862      0.145564     -0.083855
O	      4.24266      4.18746      2.10205        -0.949437     -0.036729     -0.631393
O	      4.34254      2.03968      4.18593         0.333912     -0.480510      0.035978
O	      6.40735      4.14783      4.16980         0.043290     -0.294432     -0.014968
O	      6.40675      2.30381      6.10011         0.003522     -0.019319     -0.113174
O	      8.29991      4.15555      6.12035        -0.048432      0.021803      0.228858
O	      2.17270      4.13666      4.07808         0.053837      0.030463     -0.556043
O	      4.31672      6.21848      4.21546        -0.005781      0.588896     -0.055691
O	      4.43643      4.16578      6.21759         0.484826     -0.137658      0.554331
O	      6.36373      6.05781      6.18740         0.000758     -0.290103      0.087000
O	      6.35076      4.15509      8.14852         0.302715      0.044264      0.554829
O	      8.47028      6.05893      8.33547         0.024303      0.504770     -0.104880
O	      2.16873      6.30695      6.29250        -0.128253      0.039671     -0.076324
O	      4.19366      8.31975      6.23158        -0.026366      0.088397     -0.057222
O	      4.18038      6.23890      8.47588         0.493373      0.086438      0.258309
O	      6.39113      8.35842      8.46877         0.051990     -0.454242      0.377198
O	      6.20465      6.42050     10.44010         0.041746      0.250913      0.045824
O	      8.35244      8.45140     10.44651        -0.228357      0.028269     -0.048536
