# total energy = -210.31782148 eV
 
CRYSTAL
PRIMVEC
0.031893 6.187756 6.304866 
6.134076 0.036399 6.301093 
4.103662 4.136732 0.009979 
PRIMCOORD
36 1
Li	      6.13421      6.21827     12.56000        -0.225571     -0.002992      0.135701
Li	      8.16291      2.14296      6.30400        -0.008327      0.226206      0.177049
Li	      4.07155      2.11515      2.09357        -0.061356      0.139452      0.051369
Li	      8.18061      4.17848      4.36817        -0.064600      0.077303      0.136918
Li	      2.09204      2.08798      4.22602         0.046781     -0.061567     -0.212179
Li	      4.14064      2.12513      6.26338         0.067265     -0.217883     -0.029308
Li	      6.13608      4.12028      6.25073         0.235557     -0.071201     -0.049500
Li	      2.07969      6.16817      4.19782         0.009121     -0.040369     -0.118030
Li	      4.11657      6.16390      6.23355        -0.060147      0.024751     -0.067669
Mn	      6.13950      2.08309      4.33606        -0.312307      0.262945      0.168552
V	      2.15150      6.25993      8.31879        -0.527416      0.403519      0.660927
V	      6.15990      6.24520      8.32662         0.110267      0.042568      0.402902
Fe	      4.02036      8.14960      4.31279         0.241920     -0.005965     -0.195990
Co	      8.24920      4.14319      8.29566         0.143942     -0.033765      0.695627
Co	      4.10559      4.15160      4.20272         0.217048     -0.104065     -0.517342
Cu	      2.07319      4.13871      6.18871        -0.066661     -0.071891     -0.065839
Cu	      4.11491      4.13569      8.34597         0.007447      0.328105      0.058012
Ni	      6.13450      2.11556      8.33326         0.233990     -0.312331     -0.074542
O	      2.07027      1.94985      2.10985         0.009989      0.304960     -0.023501
O	      4.22424      4.16289      2.22142        -0.606620      0.033185      0.197921
O	      4.21281      2.20550      4.22997         0.226817      0.057256      0.070813
O	      6.08225      4.06698      4.14559        -0.077020     -0.301503      0.115083
O	      6.15430      2.09237      6.23445        -0.031802      0.001127     -0.371600
O	      8.20614      4.16664      6.50989        -0.096058      0.015923     -0.327191
O	      2.13712      4.12057      3.94785        -0.148954      0.005739      0.047676
O	      4.11372      6.17654      4.11331        -0.031360      0.060122      0.234084
O	      3.99549      4.17935      6.10055        -0.173550     -0.047314      0.128571
O	      6.11837      6.24162      6.54473        -0.059166      0.180869     -0.041529
O	      6.15938      4.22433      8.51267         0.338884      0.451816     -0.148320
O	      8.14548      6.30386      8.38455        -0.519185     -0.336996     -0.042670
O	      2.05360      6.11060      6.57336         0.036227     -0.133846     -0.945114
O	      4.23101      8.26178      6.18030         0.211190     -0.074415      0.132073
O	      4.04823      6.14234      8.43551         1.097716     -0.145511      0.031630
O	      6.17347      8.29314      8.64701        -0.107177     -0.641272      0.138905
O	      6.12959      6.28834     10.39024         0.031831      0.009990     -0.228811
O	      8.17792      8.27315     10.61904        -0.088711     -0.022949     -0.124677
