# total energy = -210.27601021 eV
 
CRYSTAL
PRIMVEC
-0.019700 6.346752 6.289889 
6.166026 0.005282 6.264975 
4.104589 4.208298 0.009483 
PRIMCOORD
36 1
Li	      6.19811      6.41667     12.50641         0.033290      0.001129     -0.011409
Li	      6.10929     10.45220      8.35334        -0.030339     -0.026779     -0.107496
Li	      6.20945      2.07417      8.24094        -0.032250      0.011650     -0.007988
Li	      4.23751      2.26907      6.37602        -0.005756     -0.017517      0.048716
Li	      6.11845      4.13318      6.30987         0.019249      0.048311      0.099382
Li	      6.02646      4.40206     10.45632        -0.048395      0.054948     -0.031936
Li	      6.13846      8.44581      6.40761        -0.038419     -0.009358      0.011029
Li	      4.03167      4.28794      8.32959        -0.021292     -0.008890     -0.020733
Li	      6.09819      6.43689      8.39204         0.041642      0.028582     -0.079744
Mn	      4.04187      6.28999      6.27747         0.087409      0.105536      0.065032
V	      8.13043      4.33213      8.30264         0.026110      0.293893     -0.448198
V	      6.18408      6.30262      4.25630        -0.077715      0.042201     -0.269309
Fe	      6.18909      8.41395     10.45306        -0.026405     -0.051665      0.031991
Co	      4.10574      6.37275     10.37938         0.194386     -0.038228     -0.143719
Co	      4.12482      4.18567      4.23317        -0.060843     -0.034566      0.109351
Cu	      8.19006      8.40799     12.48243         0.111016     -0.011484     -0.028417
Cu	      4.11132      8.46871      8.28631        -0.201069      0.022836     -0.257117
Cu	      8.15602      6.32609     10.46150        -0.106594      0.151758     -0.133141
O	      2.11296      6.28116      6.15943         0.042495      0.037524      0.197824
O	      2.10083      2.23036      2.32554         0.109394     -0.006085      0.264002
O	      4.00412      4.13671      2.29008        -0.009528     -0.099061      0.112086
O	      4.05753      2.16459      4.38120        -0.225243      0.086161      0.281351
O	      6.13208      4.31541      4.19157        -0.131383      0.323531      0.005238
O	      6.27579      2.13016      6.18491        -0.096269      0.046101      0.077502
O	      8.29920      4.21256      6.52417        -0.059766     -0.070966      0.170984
O	      2.20815      4.08980      4.11811        -0.100359     -0.741764      0.100262
O	      4.14894      6.10761      4.26911         0.470339      0.095653      0.144649
O	      4.10834      4.33874      6.20448         0.012447     -0.022459     -0.035652
O	      6.00968      6.37036      6.13544        -0.157952      0.028629      0.179277
O	      6.38757      4.16953      8.45082         0.009074     -0.015768     -0.017044
O	      8.24050      6.15355      8.47067         0.042464     -0.180299     -0.137107
O	      3.96307      8.22179      6.13257         0.009617     -0.091970     -0.151707
O	      4.06234      6.39165      8.18522        -0.054194     -0.040180      0.187650
O	      6.03796      8.46711      8.48270         0.365096      0.073350     -0.081768
O	      6.11249      6.42670     10.46480        -0.170032     -0.056542      0.009116
O	      8.13599      8.60395     10.33340         0.079775      0.071786     -0.132955
