# total energy = -205.15265942 eV
 
CRYSTAL
PRIMVEC
0.005939 6.146788 6.170627 
6.479163 0.021066 6.157925 
4.356933 4.126844 -0.023626 
PRIMCOORD
36 1
Li	      4.29049      8.18665      8.18496        -0.082966      0.038447      0.044423
Li	     10.69533      6.26885      8.30684         0.023160     -0.035089      0.085231
Li	      8.49731      4.26929      8.35874        -0.019765     -0.029069      0.087635
Li	      2.06720      2.17751      4.13623        -0.028291      0.012867     -0.031142
Li	      4.12860      4.15869      4.12571        -0.011158     -0.022900     -0.043340
Li	      8.70927      6.19173      6.25251        -0.002147      0.008352     -0.057907
Li	      0.10431      4.01486      4.01365         0.031402     -0.033579      0.004168
Li	      2.36632      6.08920      3.94048         0.037645     -0.040146      0.006341
Li	      6.73935      6.08978      8.13914         0.011547      0.023623      0.020099
Mn	      2.16711      4.06801      6.13020        -0.013109      0.011631      0.033927
V	      6.31048      4.21310      2.14731         0.032484      0.000468      0.099583
V	      4.51062      6.26815     10.22659        -0.169504     -0.009206     -0.019996
Fe	      4.39496      6.19794      5.98798        -0.000281      0.089836      0.347247
Cu	      6.57264      8.21145     10.21120        -0.075072     -0.055247     -0.104537
Cu	      4.47366      4.02688      8.23935        -0.019343      0.088071     -0.064939
Ni	     10.79813      4.14528      6.14047        -0.015794     -0.096322      0.116934
Ni	      8.67344      8.21505     12.25810         0.062718     -0.049615      0.102987
Ni	      6.49316      4.11768      6.18057         0.075937      0.088533     -0.128285
O	      6.45740      4.11110      8.15391         0.143053      0.009011      0.247013
O	      8.69632      6.23618      8.19124         0.001112     -0.192607      0.000675
O	      2.18318      1.83009      2.02576        -0.029468      0.197779      0.004948
O	      4.55074      4.10536      2.04429        -0.097285     -0.046293      0.103866
O	      4.17309      1.84219      4.07522        -0.070685      0.224332      0.048467
O	      6.55545      4.06331      3.97238         0.100001      0.047131      0.112788
O	      6.62676      2.04109      5.99062        -0.090816     -0.035203      0.032104
O	      8.65266      4.10433      5.95236        -0.051408      0.085991     -0.086078
O	      2.15524      4.13212      4.25758        -0.018790      0.013341     -0.113227
O	      4.33135      6.14135      4.16180        -0.008540      0.010866     -0.270598
O	      4.40772      4.20215      6.25471        -0.124314     -0.101095     -0.141153
O	      6.38090      6.24511      6.18054         0.100050     -0.018298     -0.005245
O	      2.19788      6.08914      6.35087         0.054021     -0.015870     -0.129798
O	      4.26305      8.20676      6.22276         0.061639     -0.025774     -0.035642
O	      4.19581      6.09810      8.37724        -0.047178      0.067076     -0.104590
O	      6.56912      8.37479      8.16511         0.045345     -0.128659     -0.012580
O	      6.31388      6.25180     10.25124         0.134205     -0.092849     -0.131995
O	      8.76034      8.42392     10.22132         0.061595      0.010468     -0.017382
