# total energy = -206.02300438 eV
 
CRYSTAL
PRIMVEC
0.015582 6.080964 6.525324 
6.141698 -0.003111 6.543924 
4.086363 4.058264 0.006189 
PRIMCOORD
36 1
Li	      2.12901      7.98111      6.40778        -0.010622      0.060249     -0.081625
Li	      1.96057      6.08312      8.53579         0.016679      0.097279      0.150924
Li	      8.27925     10.09056     10.94726        -0.024877     -0.073198      0.013598
Li	      6.19219      8.05904     10.78633         0.061466     -0.016339      0.071917
Li	      4.04636      6.08302      2.26913         0.026595     -0.001349      0.039508
Li	      6.10199      6.11878      4.42729         0.035837     -0.057676      0.021930
Li	      8.09831      6.08486      6.72210         0.059311      0.047855     -0.047085
Li	      8.19146      6.10579     10.91285        -0.055524      0.136423     -0.119508
Li	      6.20382      6.10338      8.63609         0.003936     -0.057024      0.034872
Mn	      2.09776      4.05238      6.54515         0.243825     -0.244330      0.012684
V	      4.04552      1.88819      2.32365         0.123833      0.180461      0.433540
V	      6.20758      3.84277      6.45984        -0.088459     -0.015509     -0.213575
Fe	      8.17109      4.16134      8.76131        -0.193659     -0.090265      0.128234
Cu	      6.16131      6.06371     13.03395         0.085958      0.109654     -0.120324
Cu	      4.07082      4.16491      4.29392         0.029525      0.076452     -0.036779
Cu	     10.22722      8.10287     10.90120         0.187155     -0.007055     -0.147575
Ni	      4.13168      6.08921      6.48750         0.168807      0.018810     -0.030234
Ni	      8.19067      8.06652      8.81080        -0.004444     -0.003387      0.102927
O	      4.10739      6.16128      4.41200        -0.018137     -0.076319     -0.045745
O	      6.15485      5.92739     11.08997         0.004239      0.232972      0.083236
O	      8.36896      8.12825     10.82799        -0.492942     -0.120255     -0.001262
O	      2.21824      2.09122      2.15765         0.044729     -0.110432     -0.082748
O	      4.01192      4.01080      1.99206         0.215649     -0.011013     -0.120463
O	      4.11068      2.16431      4.10039        -0.023613     -0.174252     -0.170689
O	      6.02289      4.11838      4.66296         0.114263     -0.012997      0.153767
O	      6.14637      2.09971      6.44540        -0.054272     -0.155140      0.004257
O	      7.98797      4.08467      6.54455         0.183502      0.009832      0.095448
O	      1.98721      4.05813      4.27483         0.064089     -0.021345      0.005945
O	      4.17594      4.07441      6.68765        -0.080992     -0.003742      0.065532
O	      6.14334      6.21278      6.54893        -0.080435     -0.276219     -0.080886
O	      6.15976      4.03336      8.39337        -0.009984      0.086718     -0.052664
O	      8.18070      6.03287      8.71788         0.013134      0.171756     -0.021773
O	      2.15097      5.94294      6.56061        -0.366261      0.241607     -0.084353
O	      4.15722      8.08768      6.77679        -0.026301      0.113484      0.124096
O	      4.07292      6.18950      8.78376         0.011590     -0.023711     -0.174285
O	      6.02408      8.13712      8.72301        -0.163600     -0.031995      0.089159
