# total energy = -204.25497733 eV
 
CRYSTAL
PRIMVEC
-0.015875 6.190003 6.149355 
6.469375 -0.010606 6.145410 
4.316412 4.127104 -0.010231 
PRIMCOORD
36 1
Li	     10.75690     10.25748     12.23915        -0.003641     -0.058510      0.037127
Li	      6.52089     10.23958      8.18267         0.015967     -0.121741     -0.000537
Li	      4.50047      8.14614      8.11266         0.105470     -0.011601      0.023519
Li	      4.44655      6.06198     10.18540         0.080303      0.044942      0.032852
Li	      6.57035      8.19159     10.15929         0.005277      0.018177      0.015824
Li	      8.51017      4.10585      8.17950         0.032768      0.062175     -0.035546
Li	     10.64451      8.30522     10.23160        -0.023489      0.010930      0.039661
Li	      6.41911      8.22582      6.28732        -0.000264      0.025890     -0.004874
Li	      8.50335      8.30323      8.25635        -0.084463      0.041362      0.015102
Mn	      4.24169      6.17723      6.20225         0.008855      0.035853     -0.037634
V	      4.28586      3.99702      3.91035         0.075339     -0.063637     -0.291273
V	      4.40985      2.06920      6.22545        -0.099958     -0.112844     -0.071520
Fe	      8.52800      6.24147     10.25727         0.046644     -0.040291     -0.035675
Cu	      2.19137      2.09933      0.03380         0.048746      0.027813      0.176705
Cu	      6.50101      2.17138      8.20267        -0.180659     -0.072757      0.226291
Cu	      2.13189      2.10871      3.98978         0.091578      0.104117     -0.137544
Cu	      6.45902      4.17824      6.17083         0.049349     -0.185416     -0.034806
Ni	      6.40405      6.21696      8.24368        -0.085737      0.089388      0.001225
O	      6.46751      8.09774      8.24093         0.071223      0.395891     -0.066555
O	      8.60859      8.20276     10.39109         0.025243      0.049887     -0.103744
O	      1.95947      2.10020      1.98456         0.124001     -0.034210     -0.178026
O	      4.35645      4.02670      2.16719        -0.006026      0.006726      0.064693
O	      4.37917      2.20921      4.18105         0.169528     -0.062162      0.086636
O	      6.19126      4.29037      4.15089        -0.092310     -0.010330      0.051936
O	      6.35621      2.19793      6.19320         0.103936      0.063313     -0.117559
O	      8.73557      4.41223      6.07542         0.010933      0.051600      0.015863
O	      2.38899      4.09183      4.02354        -0.140919      0.112608      0.017788
O	      4.15824      6.03376      4.18768        -0.235621      0.007341      0.079420
O	      4.17157      4.03759      6.04162        -0.074223      0.082707      0.011859
O	      6.35858      6.15853      6.16105        -0.062715      0.054619     -0.170172
O	      6.49561      4.30544      8.13916         0.046304     -0.343410     -0.099556
O	      8.75543      6.24782      8.17271         0.132012      0.043208     -0.016389
O	      2.31511      6.10913      6.12088        -0.010889     -0.027915      0.121576
O	      4.28410      8.03955      6.12784        -0.045651     -0.075360      0.014787
O	      4.31569      6.15468      8.06840        -0.111596     -0.043375      0.070785
O	      6.60102      6.12746     10.20882         0.014686     -0.064984      0.297761
