# total energy = -216.82085462 eV
 
CRYSTAL
PRIMVEC
-0.000545 6.213631 6.263278 
6.236000 -0.064108 6.327254 
4.147482 4.174279 -0.032601 
PRIMCOORD
36 1
Li	      6.21767      4.10904      2.18989         0.139629     -0.067296      0.089149
Li	      4.24427      8.16974      8.50489         0.064745     -0.168296      0.036274
Li	      4.10155      0.04719      4.15128        -0.074934     -0.026331     -0.134908
Li	      6.05714      2.21738      4.24569         0.019640      0.077330     -0.033931
Li	      4.24599      4.03287      4.25499         0.024750     -0.040469      0.085555
Li	      4.14468      2.12998      6.15240        -0.059438      0.110099      0.029367
Li	      6.17578      4.10282      6.13544        -0.069851     -0.020292      0.001743
Li	      2.10268      6.19782      4.19365         0.098978      0.052835     -0.056720
Li	      4.19713      6.16694      6.34944         0.012607     -0.031108      0.004165
V	     10.35055      8.32268     10.53884         0.190762     -0.759260     -0.821700
V	      8.36336      4.12484      8.33254        -1.115484      0.170002      0.712871
Fe	      4.14473      4.15738      0.00388         0.617468      0.432085     -0.515592
Fe	      2.02496      8.11031      6.21042         0.289551      0.414473      0.097965
Fe	     10.36577      6.16596      8.36272        -0.029702      0.707742      0.440143
Fe	      6.38245      6.09307      4.22234        -0.186991      0.137333     -0.029455
Fe	      4.07804      4.22353      8.32072         0.090167     -0.162041      0.123430
Co	      2.10255      4.13675      6.29438         0.229168     -0.119240      0.183261
Cu	      6.21711      6.23653      8.32876         0.061878      0.194675     -0.058953
O	      2.03680      2.15948      2.02540         0.076145     -0.044600      0.233425
O	      4.04612      4.24440      2.08367         0.088567     -0.244555     -0.193642
O	      4.12344      2.04704      4.18526         0.117269     -0.033557      0.015208
O	      6.20235      4.21830      4.19692         0.013884     -0.185855     -0.036724
O	      6.28126      1.95755      6.39039        -0.551556      0.013864     -0.102958
O	      8.29367      3.98813      6.50279         0.093172      0.180740      0.069010
O	      2.01482      4.12824      4.03325         0.070435      0.066782     -0.004085
O	      4.20767      6.44968      4.01286         0.046784     -0.016966      0.149907
O	      4.01660      4.14552      6.36722        -0.026806     -0.037270     -0.197760
O	      6.21110      6.41570      6.14992         0.090125      0.039510     -0.173057
O	      6.24668      4.09704      8.45953         0.039169     -0.458156     -0.007957
O	      8.30129      6.12446      8.36623         0.403344     -0.171304      0.083683
O	      2.03078      6.15460      6.28847         0.001265     -0.796548      0.107656
O	      4.21700      8.30395      6.17509        -0.024663     -0.005793      0.020777
O	      4.28565      6.09904      8.40882        -0.526138      0.194705     -0.014830
O	      6.27343      8.24903      8.20756        -0.142397      0.384622     -0.119530
O	      6.26394      5.96734     10.57731        -0.118570      0.180450      0.333414
O	      8.39816      8.20762     10.54025         0.047028      0.031692     -0.315203
