# total energy = -221.41644794 eV
 
CRYSTAL
PRIMVEC
0.030799 6.204392 6.255534 
6.294794 0.045400 6.241627 
4.239911 4.170344 -0.013108 
PRIMCOORD
36 1
Li	      4.20551      4.14058      0.06064        -0.020745      0.011993      0.016029
Li	      4.15621      2.14247      2.13798        -0.047471      0.040690     -0.050979
Li	      4.22565      6.24523     10.39112        -0.032455      0.026578     -0.018643
Li	      2.24502      4.10403      2.06260         0.083324     -0.031003      0.014736
Li	      2.11086      2.09650      4.14167        -0.003188      0.053633      0.021950
Li	      4.23977      4.15800      4.09275         0.014270      0.015116      0.014445
Li	      6.33198      4.21993      6.27178        -0.032166      0.008506      0.038601
Li	      4.27879      6.18760      6.25071         0.039184     -0.011794      0.007261
Li	      6.16907      6.18043      8.33103        -0.080182     -0.012311     -0.038163
V	      6.24276      2.11958      4.19813         0.122896      0.097238      0.004583
V	      6.31327      8.25506      6.21889        -0.181159     -0.035221      0.020152
Fe	      8.49110      2.22628      6.24601        -0.042708      0.143461     -0.052066
Fe	      2.14633      0.05871      2.10131        -0.032783     -0.083308      0.035443
Fe	      0.07151      2.06690      2.12306         0.027381      0.047360     -0.140004
Fe	      8.41568      6.15935      6.22852         0.053260      0.067307      0.056670
Fe	      2.18536      6.19926      4.13524        -0.018497      0.009353     -0.028646
Co	      6.31400      4.22703     10.38206         0.024213      0.124999     -0.009638
Co	      4.19805      4.17886      8.31771        -0.020945      0.035976      0.060685
O	      2.08701      2.04875      2.12205         0.061227      0.084499      0.021429
O	      4.36164      4.26844      2.05717        -0.044729     -0.104136      0.022006
O	      4.32296      2.08519      4.24236        -0.073758     -0.021314     -0.051828
O	      6.34076      3.97589      4.09775         0.014045      0.031877      0.038443
O	      6.26850      2.13205      6.17727        -0.111150     -0.002650      0.041239
O	      8.41176      4.24688      6.28098        -0.045965     -0.051690     -0.015975
O	      2.11366      4.22815      4.25621         0.245465     -0.140644      0.044803
O	      4.17189      6.25478      4.10679         0.092111     -0.233172      0.061026
O	      4.09919      4.08622      6.39489         0.032946      0.022021     -0.016827
O	      6.38482      6.40925      6.21800         0.032580     -0.039672      0.013991
O	      6.13798      4.15311      8.39865        -0.133493     -0.037183     -0.639470
O	      8.51422      6.36710      8.31715        -0.011553     -0.053337     -0.081357
O	      2.15027      6.11450      6.22007         0.037898      0.087220      0.009447
O	      4.35735      8.32308      6.12609         0.217592      0.023096      0.642542
O	      4.14004      6.10981      8.31626         0.060724     -0.045646      0.002992
O	      6.42829      8.35627      8.29288         0.025748     -0.034908     -0.013655
O	      6.43952      6.43083     10.35876        -0.026174      0.016222     -0.060861
O	      8.39203      8.29663     10.30534        -0.225747     -0.009156      0.029638
