# total energy = -215.01965786 eV
 
CRYSTAL
PRIMVEC
-0.025593 6.317885 6.486245 
6.173251 0.056800 6.403315 
4.138957 4.180672 0.014958 
PRIMCOORD
36 1
Li	     10.25203      4.38066      6.60644        -0.021474     -0.029524      0.091555
Li	      1.95932      2.15255      0.20931        -0.058021      0.094296      0.161026
Li	      6.04507      4.26673      2.20322        -0.050000     -0.004614      0.011607
Li	      4.05827      2.34519      2.14456        -0.015888      0.090072     -0.004047
Li	      6.11203      2.24006      4.48067        -0.125951      0.100472      0.058821
Li	      2.18492      4.13147      2.00365         0.056770     -0.048753     -0.159652
Li	      4.22358      4.10129      4.02851         0.102768     -0.104087     -0.026929
Li	      6.23397      4.12241      6.31760         0.025835     -0.041437      0.015873
Li	      6.19433      6.29256      8.66091        -0.012786     -0.022469     -0.049536
V	      6.14722      8.38398      6.54637         0.230073     -0.088319      0.565528
V	      4.16615      4.27158      8.63079        -0.221184     -0.159390     -0.692220
Fe	      8.27419      4.26687      4.44828        -0.325160      0.340385     -0.062724
Fe	      2.12500      2.06223      4.09205         0.225122     -0.209271      0.228619
Fe	      4.12933      8.40985      4.37204         0.156544      0.015361     -0.042401
Fe	      8.17358      6.37563     10.76069        -0.278554     -0.241476     -0.068138
Fe	      4.13603      6.28325      6.46011         0.167201     -0.047757      0.185861
Cu	      4.16071      2.08002      6.40697        -0.061191      0.050022      0.026888
Ni	      0.01063      2.02700      2.07134         0.012563      0.027033     -0.025640
O	      2.01603      2.14615      2.21991         0.207711      0.066503     -0.362087
O	      4.11501      4.25095      2.14626        -0.082589     -0.158739      0.047301
O	      4.10213      2.04366      4.15808         0.035949      0.066630     -0.232405
O	      6.29296      4.27929      4.26434        -0.068312     -0.069543      0.005662
O	      6.07889      2.18742      6.46256         0.129325     -0.027800     -0.157935
O	      8.23454      4.27286      6.34806         0.001009     -0.061894      0.197488
O	      1.99623      4.23672      4.49582         0.632534      0.052891     -0.023363
O	      4.11684      6.41210      4.41388        -0.120128     -0.921519      0.042172
O	      4.06850      4.21513      6.57348        -0.087321      0.076194      0.024942
O	      6.17682      6.40134      6.34105         0.070411      0.088060      0.060335
O	      6.08094      4.22433      8.81860        -0.042076     -0.002646     -1.085476
O	      8.19282      6.52007      8.80358        -0.095429      0.295461     -0.108995
O	      2.12691      6.20421      6.32135        -0.062201      0.001424      0.300823
O	      4.18416      8.28402      6.37348         0.060287      0.021501      0.820278
O	      4.11931      6.11850      8.49314        -0.007232     -0.133546      0.063373
O	      6.21767      8.40440      8.34627         0.041888     -0.039992     -0.030032
O	      6.14244      6.21174     10.75629         0.351742      1.140387     -0.078523
O	      8.28352      8.47012     10.64709        -0.772235     -0.113917      0.301950
