# total energy = -222.25844682 eV
 
CRYSTAL
PRIMVEC
0.004246 6.344329 6.250091 
6.310705 -0.000226 6.254601 
4.216104 4.241363 -0.009122 
PRIMCOORD
36 1
Li	      6.31886      2.13449      4.19438         0.027199      0.043764      0.018685
Li	     10.46629      6.33859      8.34848        -0.049961      0.021397      0.043468
Li	      8.43120      4.30639      8.35714         0.019386      0.029917      0.015002
Li	      4.17418      4.30592      4.21394        -0.023580      0.067676      0.015886
Li	      6.27937      4.25032      6.23882        -0.008321      0.027836      0.006646
Li	      2.15614      6.28956      4.14061         0.038070     -0.022622      0.005267
Li	      2.16008      4.22825      6.20262         0.083411     -0.005124     -0.054147
Li	      4.22981      6.26858      6.20845        -0.014286     -0.072985     -0.002568
Li	      6.36713      6.34317      8.27994         0.018192     -0.064261     -0.054387
V	      4.27050      8.44629      8.29307        -0.057562      0.022275     -0.030810
V	      0.06259      4.19458      4.08535        -0.087830     -0.122223     -0.173088
Fe	      6.34733      0.05354      6.24639        -0.001443      0.030312     -0.006545
Fe	      6.28420      4.23442      2.06230        -0.014747      0.123198     -0.026981
Fe	      8.41641      4.23459      4.17245         0.036119     -0.230879      0.089994
Fe	      6.27409      6.36490      4.24162        -0.038844      0.018587     -0.161075
Fe	      4.20619      2.17003      6.29983        -0.056124      0.005839      0.082603
Fe	      8.35713      8.40852      8.27846         0.113599      0.033865      0.121981
Co	      8.34872      2.13523      6.26239         0.051948     -0.063519     -0.083597
O	      2.23175      2.05472      2.10704         0.025896      0.016934      0.099430
O	      4.26310      4.15323      2.03751        -0.010321      0.092939     -0.055516
O	      4.17595      2.05847      4.11278         0.057431      0.019752      0.044169
O	      6.38440      4.30403      4.09223         0.008546     -0.008496      0.040798
O	      6.25508      2.04702      6.23255         0.544765      0.048729      0.050555
O	      8.47268      4.28588      6.20124         0.035164     -0.073268      0.002329
O	      1.99098      4.16059      4.15378        -0.079542      0.024786      0.038730
O	      4.28819      6.47322      4.18936        -0.014866      0.034072      0.012690
O	      4.23740      4.16757      6.33260        -0.030918      0.003832     -0.090705
O	      6.43086      6.32516      6.17903         0.008353      0.040288      0.033875
O	      6.23475      4.25595      8.52419        -0.030202     -0.014281      0.145869
O	      8.40471      6.44543      8.27878         0.029402     -0.068011      0.001139
O	      2.03904      6.37684      6.31983         0.000844      0.186575     -0.084828
O	      4.18492      8.53093      6.20679        -0.496488     -0.037854      0.008341
O	      4.17889      6.34116      8.36616        -0.022432     -0.116018     -0.022444
O	      6.29688      8.52605      8.35640        -0.052278     -0.040957     -0.043196
O	      6.25993      6.22699     10.48205        -0.012916      0.004414      0.011139
O	      8.48950      8.52957     10.37158         0.004335      0.043511      0.001290
