# total energy = -93.34676393 eV
 
CRYSTAL
PRIMVEC
2.054743 4.151112 2.054401 
4.198083 -4.208772 0.027026 
4.170891 -0.000139 -4.169903 
PRIMCOORD
16 1
Li	      4.17451      1.99825      2.04130         0.039071     -0.110414     -0.032303
Li	      4.18853      0.02805      0.03321         0.088084      0.014967      0.062536
Li	      4.24052     -2.05705     -2.08368         0.058038      0.030794      0.046282
Li	      6.24929     -0.08797     -2.09748        -0.011581     -0.070709      0.057099
Mn	      0.04079     -0.00047     -0.00028        -0.751995      0.042326      0.031740
Mn	      2.11139      2.06449     -0.02626        -0.097023      0.411529     -0.220614
Ni	      2.13955     -0.00068     -2.09886        -0.169905     -0.018974     -0.175869
Ni	      4.18349      2.06430     -2.09790        -0.129495      0.182543      0.080594
O	      6.28303     -0.17624      0.10003        -0.031014     -0.177457     -0.032873
O	      6.30981     -2.14067     -1.92670        -0.046024      0.115929      0.246875
O	      4.01782      2.08207     -0.02696        -0.011364     -0.206252      0.012859
O	      4.17976     -0.00410     -2.25300         0.262058     -0.118477     -0.013411
O	      8.53721     -0.05509     -2.08864         0.102371     -0.015113     -0.020591
O	      4.30720     -2.26209      0.01068         0.240428      0.004490     -0.147345
O	      6.27244      2.20327     -2.21513         0.126366     -0.115469     -0.000597
O	      1.99099      0.11766      0.00035         0.331987      0.030288      0.105619
