# total energy = -218.22823874 eV
 
CRYSTAL
PRIMVEC
-0.028630 6.316225 6.363021 
6.327886 -0.026140 6.361264 
4.208957 4.199913 -0.008032 
PRIMCOORD
36 1
Li	     10.33209      6.32030      8.57165         0.028088      0.013916      0.012241
Li	      8.36488      4.36195      8.63322        -0.033578      0.004019      0.016416
Li	      2.07485      2.20811      4.18035        -0.014069      0.020882     -0.066790
Li	      4.10778      4.21099      4.15873         0.019269     -0.022400     -0.033535
Li	      8.43362      6.26125      6.60927         0.074600     -0.072639     -0.017617
Li	      6.41880      4.15789     10.35667         0.035911     -0.023748     -0.065309
Li	      8.43561      6.18966     10.34653        -0.002078      0.006025      0.156406
Li	      8.48993      8.17349      8.49380         0.034904     -0.006634      0.061012
Li	      6.55127      6.21496      8.47275        -0.016132     -0.032304      0.031301
V	      6.29815      8.41286     10.55227        -0.073215      0.019154      0.064518
V	      4.20279      6.27764      6.12908        -0.098876     -0.002025     -0.251294
Fe	      4.21904      4.23098      0.05957        -0.061511     -0.005899     -0.141901
Fe	      8.39484      2.07193      6.38283         0.067250     -0.023915     -0.099566
Fe	      4.17629      2.12314      2.16264         0.019938     -0.016806     -0.029305
Fe	      4.17830      6.29076     10.55232         0.039836      0.032294      0.007640
Fe	      6.30769      4.21478      6.58522        -0.000845     -0.007307     -0.287121
Fe	      2.15726      4.15819      6.19741         0.002904      0.048157      0.137815
Cu	      6.28786      4.23694      2.14354        -0.065254     -0.054294      0.077062
O	      8.43829      6.26526      8.47445        -0.009451      0.026532      0.020778
O	      2.17193      2.05115      2.00943         0.019220      0.102857      0.056356
O	      4.31113      4.11801      2.07431        -0.125162     -0.032069      0.132829
O	      4.29473      2.01929      4.17536        -0.071860      0.084602     -0.036061
O	      6.34966      4.00261      4.41312        -0.071970     -0.010296      0.203244
O	      6.38580      2.13095      6.25387        -0.004346      0.054993      0.052445
O	      8.38563      4.10035      6.25059        -0.091810      0.039990     -0.006286
O	      2.09556      4.16949      4.35141        -0.007619      0.011605     -0.157017
O	      4.23274      6.31790      4.38311         0.020982     -0.016475      0.198065
O	      4.17944      4.34523      6.38734         0.015259      0.002324      0.025715
O	      6.15915      6.30231      6.38882         0.032863      0.035313      0.008113
O	      6.32019      4.17945      8.41742         0.004426     -0.002182      0.156314
O	      2.18727      6.29811      6.24610         0.151799      0.006000     -0.126379
O	      4.21222      8.31421      6.42833        -0.004901     -0.084348      0.006460
O	      4.05807      6.39433      8.51929         0.103772      0.037081     -0.054254
O	      6.22138      8.45702      8.56952        -0.035510     -0.089760     -0.131128
O	      6.20683      6.49076     10.66929         0.062035      0.040187      0.017965
O	      8.29559      8.47916     10.64844         0.055135     -0.082828      0.060866
