# total energy = -223.41864236 eV
 
CRYSTAL
PRIMVEC
0.010485 6.358336 6.276871 
6.329627 0.011129 6.276490 
4.233980 4.252998 -0.006869 
PRIMCOORD
36 1
Li	     10.45191      4.27378      6.29154        -0.069794     -0.045693      0.034215
Li	      4.15176      2.18899      2.18315         0.009500      0.024801     -0.095049
Li	      4.27882      0.19679      4.23578         0.006942      0.124199      0.015649
Li	      6.22244      2.08074      4.20380        -0.026120      0.009650     -0.011653
Li	      4.28528      6.33048      2.12609         0.018272     -0.004076      0.003804
Li	      2.17975      4.18578      2.05657         0.012717     -0.008599     -0.005176
Li	      2.18993      2.13849      4.08405         0.035679      0.025146     -0.087154
Li	      4.26005      2.03269      6.17705         0.039776     -0.002511     -0.003082
Li	      0.03781      4.23239      4.16638         0.038074     -0.020006      0.054609
V	      6.42891      4.14916      6.22780         0.189499     -0.324383     -0.041130
V	      6.31376      8.45223      6.25146         0.558696     -0.026898     -0.065799
Fe	      8.48257      2.22856      6.25611         0.094257      0.036254     -0.081105
Fe	      6.29662      4.37823      2.16657         0.029778     -0.058692      0.046657
Fe	      4.21647      4.10343      4.09882        -0.118402      0.137330      0.050738
Fe	      8.42362      6.36675     10.43582        -0.018590     -0.080633     -0.078164
Fe	      4.22417      6.41055      6.21393         0.048947      0.139725      0.038902
Fe	      8.49268      8.48807      8.47565        -0.057531     -0.046607     -0.060340
Fe	      6.34053      6.35460      8.45537        -0.019613      0.069313      0.108262
O	      2.13282      2.03476      2.00540        -0.029618      0.032890      0.136350
O	      4.34059      4.25837      2.12612        -0.023976      0.005955     -0.112768
O	      4.21318      2.22607      4.18318        -0.008677     -0.126284      0.015035
O	      6.29021      4.28218      4.20489         0.034658      0.039783      0.058065
O	      6.28548      2.36684      6.27139        -0.065411      0.166593      0.002287
O	      8.32290      4.32133      6.25475        -0.183026      0.121999      0.022112
O	      2.17803      4.29170      4.25563        -0.164744      0.056526     -0.223115
O	      4.13218      6.28189      4.24835         0.016788     -0.046351     -0.004450
O	      4.23915      4.30810      6.29262         0.171809      0.050301      0.044848
O	      6.25266      6.29854      6.35146         0.102653      0.445855     -0.038130
O	      6.28185      4.32889      8.25765         0.009223      0.015319     -0.038883
O	      8.37749      6.45825      8.42560        -0.001170     -0.038481     -0.013574
O	      2.16495      6.30825      6.29921         0.009775     -0.523983      0.042715
O	      4.35624      8.39065      6.26378        -0.535423     -0.145753     -0.026856
O	      4.21534      6.27486      8.35058         0.006368      0.021526     -0.079508
O	      6.45658      8.47211      8.26960        -0.101830      0.028626      0.273010
O	      6.40804      6.36347     10.39136         0.002344      0.019485      0.094794
O	      8.49441      8.39784     10.44528        -0.011831     -0.072328      0.023886
