# total energy = -233.53684857 eV
 
CRYSTAL
PRIMVEC
0.022980 6.367744 6.366618 
6.265919 0.044276 6.344654 
4.191165 4.244137 0.015986 
PRIMCOORD
36 1
Li	      8.32953      2.19974      6.34306         0.008886      0.043011     -0.036621
Li	      6.29514      4.26750      2.17682         0.013165     -0.060352     -0.004366
Li	      8.35400     10.60269     10.59151        -0.039959     -0.054181     -0.006873
Li	      6.31718      2.29029      8.47872         0.051293      0.054899      0.045818
Li	      8.22732      4.28914      8.53795        -0.041365      0.024177      0.043465
Li	      6.26808      6.36197      4.25197        -0.000359      0.009182      0.048768
Li	      6.33127      4.28279      6.40888         0.067091     -0.002213     -0.012685
Li	      6.31634      4.28810     10.46406         0.083355     -0.003460     -0.003709
Li	      6.30991      6.31451      8.47881         0.052385      0.039253     -0.032767
Mn	      8.33214      6.37215      6.42591        -0.078769      0.008114      0.017283
Mn	      4.27198      6.38217      6.35648         0.048278      0.043322     -0.037193
V	     10.41141      4.29035      6.38645        -0.041302     -0.137458      0.018419
V	      4.03248      2.08861      2.14683        -0.012485     -0.031754     -0.039037
V	      6.29240      8.55512     10.55556        -0.019427      0.058201     -0.139484
Cr	      8.37209      6.41532     10.56068         0.096389     -0.150110      0.050483
Fe	      4.21000      4.30168      4.15538        -0.064740      0.024628     -0.042094
Fe	      4.38084      4.28348      8.51042        -0.187558      0.102153     -0.033357
Co	      6.28573      8.47378      6.39271        -0.116495      0.062595     -0.104154
O	      2.26569      2.11316      2.13539         0.000168     -0.018044     -0.060904
O	      4.22371      4.12585      2.07653        -0.072633     -0.034622     -0.056310
O	      4.18730      2.21767      4.13237        -0.063206     -0.047976      0.012530
O	      6.18276      4.15491      4.26996         0.029321      0.041077      0.023434
O	      6.18628      2.04887      6.27016         0.025439     -0.016021      0.020977
O	      8.54240      4.34778      6.35266         0.021573      0.006723     -0.005591
O	      2.19606      4.35392      4.26993        -0.037335      0.018267      0.060766
O	      4.14649      6.28728      4.27573        -0.034367      0.053751     -0.025382
O	      4.19786      4.17604      6.39090        -0.196955      0.022656     -0.004996
O	      6.38251      6.40670      6.33862         0.097619      0.457266      0.059082
O	      6.25146      4.28755      8.46730         0.082869      0.030010     -0.062321
O	      8.37881      6.51269      8.56193         0.048084     -0.056162      0.005652
O	      1.94995      6.36766      6.28652         0.081408     -0.360272      0.049400
O	      4.17379      8.58785      6.49928         0.196483      0.042980     -0.034901
O	      4.19586      6.43021      8.44235        -0.021605     -0.026060      0.051932
O	      6.19629      8.50877      8.54334        -0.035453     -0.098307      0.100825
O	      6.34584      6.49132     10.72778         0.042387     -0.062906      0.003169
O	      8.36177      8.46445     10.51904         0.017822      0.017634      0.130745
