# total energy = -234.53481888 eV
 
CRYSTAL
PRIMVEC
0.007876 6.316671 6.342367 
6.351045 0.013750 6.336422 
4.210133 4.183281 0.032986 
PRIMCOORD
36 1
Li	      4.21869      4.19019      0.06109        -0.022507      0.005792      0.024759
Li	      8.34506      4.23386      4.27621        -0.029782     -0.020385     -0.011563
Li	     10.53800      6.32734      8.52362        -0.005398      0.043132      0.060969
Li	      6.33423      6.20643      4.36772        -0.023867     -0.066075      0.034001
Li	      4.27241      4.23320      4.36228        -0.007735      0.014011     -0.023744
Li	      6.21330      4.24320      6.27861         0.022065      0.001673     -0.061113
Li	      2.28097      4.19158      6.30581         0.038276     -0.009162     -0.032854
Li	      4.25896      6.13165      6.33091         0.014595     -0.054185     -0.002553
Li	      4.29049      4.21593      8.27243         0.057535     -0.018823     -0.015502
Mn	      6.33634      2.12127      4.22424        -0.016288      0.050945      0.020319
Mn	      2.17188      6.31766      4.26620         0.104689      0.021885      0.004440
V	      8.40428      2.13414      6.36998        -0.033147      0.103131      0.044590
V	      4.20317      2.07911      2.16818        -0.065602      0.033390     -0.019384
V	      2.12868      4.20987      2.12825         0.064150     -0.041001     -0.044761
Cr	      4.22554      2.17319      6.27173         0.010658     -0.075025     -0.002885
Fe	      6.29664      4.19643      2.15423         0.001616     -0.003415     -0.019050
Fe	      4.25191      8.33578      4.35207        -0.019496      0.121121      0.019190
Fe	      6.30513      6.27617      8.34976         0.013163      0.052766      0.028612
O	      2.10497      2.06640      2.12664        -0.043469      0.030724      0.017280
O	      4.17202      4.10130      2.15861         0.021711      0.011737      0.009925
O	      4.18638      2.05061      4.21048        -0.002233     -0.016525     -0.013553
O	      6.35152      4.06793      4.10733        -0.010382     -0.083077      0.086783
O	      6.35852      2.12473      6.19095        -0.042213     -0.020537     -0.082383
O	      8.43460      4.18506      6.47795         0.001061      0.010155     -0.033450
O	      2.03303      4.34190      4.17689         0.100919      0.067329      0.056221
O	      4.11915      6.37927      4.26762        -0.078592     -0.086829      0.028013
O	      4.24446      4.10451      6.32036         0.020545      0.074081     -0.017518
O	      6.42948      6.30761      6.42407        -0.046603     -0.004150     -0.106535
O	      6.43668      4.29835      8.58868        -0.021652     -0.057250      0.025712
O	      8.41587      6.28836      8.34374         0.015277      0.008946      0.042855
O	      2.07740      6.43217      6.49178        -0.018223     -0.050779     -0.092897
O	      4.08487      8.46177      6.39647         0.041245      0.025526      0.029924
O	      4.26782      6.39032      8.44782        -0.058449     -0.030976      0.010863
O	      6.29423      8.41420      8.55984         0.021043     -0.007149      0.059911
O	      6.51817      6.39157     10.49250         0.040346      0.003424      0.009077
O	      8.57865      8.33476     10.65287        -0.043259     -0.034427     -0.033698
