# total energy = -230.60137135 eV
 
CRYSTAL
PRIMVEC
-0.033397 6.324981 6.404370 
6.196409 -0.014945 6.385912 
4.123724 4.196650 -0.002209 
PRIMCOORD
36 1
Li	      2.26290      6.23124      8.45790        -0.088840     -0.068049      0.001549
Li	      4.19927      8.20218      8.54100         0.027263     -0.007337      0.047602
Li	      4.11729      6.18250     10.40708         0.009166     -0.029237     -0.006758
Li	      4.11413      2.13166      6.37038         0.029554     -0.012073     -0.017064
Li	     10.13196      8.42252     10.67921        -0.014470      0.016331      0.048317
Li	      8.26516      6.39474     10.69401         0.001767     -0.015603     -0.007783
Li	      4.11800      6.25971      6.62620         0.079872     -0.096855      0.022580
Li	      4.06987      4.44156      8.59574         0.015357     -0.012079      0.009967
Li	      5.93492      6.37364      8.53449         0.094240      0.047806      0.072879
Mn	      6.15797      2.14009      8.48972         0.032072      0.167426      0.007809
Mn	      4.13179      4.20693      4.31334        -0.034723      0.012707     -0.011865
Mn	      6.24859      8.34319      6.60131        -0.018043     -0.035998     -0.032327
V	      0.01492      6.26871      6.30847        -0.464278     -0.075136     -0.666644
V	      8.19862      4.30958      8.48214        -0.171717     -0.179310     -0.081566
V	      6.23665      6.26472      4.30647         0.005895     -0.071112     -0.081136
Cr	      6.21534      8.41062     10.59759        -0.108558      0.049829      0.012107
Co	      6.15214      4.18369      6.39024        -0.025205      0.104888     -0.019717
Ni	      2.07246      8.36955      6.33857         0.100133      0.052681      0.067455
O	      4.08805      6.35390      8.52951        -0.014924     -0.038438     -0.069370
O	      1.92492      2.26924      2.18064         0.004901      0.034818     -0.018998
O	      3.99805      4.35550      1.94072         0.157482     -0.031611     -0.091722
O	      4.10835      2.27751      4.21434         0.080972      0.075874     -0.035218
O	      6.14314      4.16087      4.42223        -0.034404     -0.109200     -0.008763
O	      6.20712      2.12333      6.30323        -0.093868     -0.114176      0.033011
O	      8.20896      4.14189      6.52826        -0.057450      0.070979      0.126085
O	      2.12830      4.15720      4.14145         0.043917      0.120041     -0.035950
O	      4.22321      6.15132      4.21617        -0.066139     -0.025308      0.032875
O	      4.22425      4.16570      6.41472        -0.087548      0.032918      0.047613
O	      6.21660      6.15187      6.25728         0.003521      0.149542      0.046864
O	      6.22774      4.11927      8.37767         0.031460     -0.008948      0.046586
O	      8.32760      6.12028      8.54952        -0.081007      0.136364      0.016553
O	      1.86945      6.32376      6.42463         0.463794     -0.056124      0.045305
O	      4.09728      8.58433      6.36604         0.127421      0.029314      0.054295
O	      6.18359      8.39929      8.64228        -0.016472      0.010914     -0.004685
O	      6.08571      6.42060     10.83939         0.063781     -0.156427      0.544675
O	      8.16757      8.37269     10.70567         0.005079      0.030589     -0.094563
