# total energy = -233.61039174 eV
 
CRYSTAL
PRIMVEC
0.035587 6.452144 6.258417 
6.218349 0.028892 6.266001 
4.182360 4.343407 -0.018686 
PRIMCOORD
36 1
Li	      8.26424      2.23735      6.28272         0.006501      0.042117     -0.082909
Li	      2.09522      6.39910      8.24929        -0.004886     -0.005315      0.027009
Li	      6.11276      2.28695      4.20465         0.125419     -0.007226      0.029064
Li	      8.36308      4.40527      8.19397        -0.050483      0.022414      0.018049
Li	      6.28698      6.48343      4.28641         0.003071      0.049922      0.020531
Li	      4.29141      4.18910      4.27204        -0.086486     -0.014823      0.040153
Li	      4.15588      2.18438      6.21245        -0.062969      0.004679      0.047213
Li	      6.20992      4.39095      6.24321         0.080984     -0.003692      0.025944
Li	      4.22043      6.38355      6.28650        -0.012906      0.062239      0.014562
Mn	      2.17976      6.47892      4.23424         0.096321     -0.078442     -0.004912
Mn	      4.13965      4.34682      8.27437         0.012612      0.055545      0.043769
Mn	      6.31297      6.52677      8.28441        -0.146636      0.150986     -0.194482
V	      8.13865      4.45469      4.19123         0.074470      0.088555     -0.076856
V	      0.17589      2.08503      2.03299        -0.187528     -0.266932     -0.189782
V	      0.13383      4.22641      4.19112        -0.145303     -0.004917      0.080888
Cr	      6.18862      0.04044      6.24598        -0.135098      0.003129      0.356801
Co	      4.14416      2.24357      2.10029         0.071629      0.057226     -0.043222
Co	      6.30784      8.62316      6.25549        -0.181420      0.092640      0.050284
O	      1.93977      2.18342      2.08136         0.210385      0.021546     -0.037622
O	      4.16069      4.42550      1.98395        -0.029469      0.084488     -0.046140
O	      4.13619      2.04997      4.13616        -0.018515     -0.059735      0.005748
O	      6.38219      4.30784      4.19298        -0.050548      0.081613     -0.048771
O	      6.22561      2.03902      6.37537         0.057703      0.004531      0.039782
O	      8.36606      4.37762      6.11742         0.079783     -0.079386     -0.036159
O	      1.92439      4.29279      4.11591         0.165079      0.124834     -0.049727
O	      4.24795      6.61648      4.09081        -0.106886     -0.059055     -0.124913
O	      4.15118      4.34894      6.36225        -0.324430     -0.045149     -0.002322
O	      6.24747      6.55436      6.40186         0.109663      0.367005     -0.028163
O	      6.16384      4.19088      8.39180        -0.061501     -0.100860      0.060395
O	      8.35377      6.48186      8.38862        -0.026079     -0.001986      0.048328
O	      1.99834      6.38627      6.25965         0.218174     -0.362457     -0.144518
O	      4.15399      8.73545      6.17060         0.349364      0.093240     -0.002296
O	      4.30281      6.59921      8.42505        -0.022921     -0.165113      0.124257
O	      6.36140      8.67979      8.41085        -0.031860      0.057517      0.011807
O	      6.17206      6.36422     10.38166         0.065125     -0.082831      0.088648
O	      8.49961      8.80108     10.28673        -0.040359     -0.126307     -0.020436
