# total energy = -228.74824418 eV
 
CRYSTAL
PRIMVEC
-0.008416 6.268988 6.327128 
6.383318 -0.017127 6.335559 
4.254276 4.183718 -0.010207 
PRIMCOORD
36 1
Li	      6.29306     10.30951      8.44252        -0.009323      0.004763      0.036921
Li	      4.34055      2.15661      2.13076        -0.018438      0.000992     -0.070760
Li	      6.39537      8.30830     10.36419        -0.039988     -0.006437      0.079944
Li	      6.27575      6.19630      4.20374         0.072070     -0.005853     -0.025694
Li	      4.35872      4.34165      4.23140         0.006058     -0.052071      0.018984
Li	     10.53547      8.28879     10.51967         0.043554      0.044418      0.092815
Li	      2.31114      6.36790      4.21859         0.015238      0.007012     -0.013232
Li	      4.28968      6.24007      6.08782        -0.001899      0.069234      0.030387
Li	      8.36034      8.30285      8.44025        -0.033714     -0.040012     -0.082166
Mn	      4.26637      2.11851      6.29225         0.064036     -0.035297      0.023682
Mn	      6.32609      4.23284      6.33763         0.011889     -0.127067     -0.039725
Mn	      2.12579      4.21583      6.33643        -0.072986      0.072447     -0.023242
V	      2.23043      8.31751      6.30230        -1.114698     -0.351814     -0.081882
V	      4.15266      6.30167     10.28234        -0.124243      0.142403      0.065006
V	      2.19183      4.19546      2.39327        -0.062373      0.068025     -0.047962
Cr	      4.30143      6.27983      2.20223        -0.006509      0.020533     -0.104566
Cu	      6.38413      6.29050      8.48050        -0.218961     -0.048306      0.135606
Ni	      6.35614      6.26972     12.61043         0.056520      0.003879     -0.000962
O	      2.07429      2.21074      2.01030         0.083693     -0.006972     -0.223538
O	      4.15703      4.25309      2.05456        -0.026133      0.069854      0.089927
O	      4.22061      1.83459      4.19873        -0.019065     -0.166143     -0.095959
O	      6.56684      4.12912      4.21706         0.131674      0.033407      0.004207
O	      6.50377      2.13092      6.44950        -0.234326      0.134105      0.060781
O	      8.44721      4.10396      6.41971         0.007319     -0.127443      0.016916
O	      2.19992      4.13499      4.16117         0.046588      0.040593     -0.091789
O	      4.29897      6.28538      4.12690         0.031266     -0.012259     -0.019646
O	      4.36587      4.19979      6.30922        -0.045389      0.006181      0.038040
O	      6.35247      6.23027      6.42957         0.078826     -0.231097     -0.053862
O	      6.57906      4.18022      8.50702         0.184212     -0.004426     -0.000923
O	      8.67418      6.13640      8.48386         0.194702     -0.056166      0.025534
O	      2.03577      6.38119      6.28055         0.166417      0.405792      0.189695
O	      4.07823      8.39989      6.31774         0.855597     -0.127732     -0.143304
O	      4.11259      6.17671      8.57539        -0.133457     -0.011021     -0.038292
O	      6.36335      8.25028      8.37468        -0.035468      0.029170     -0.080944
O	      6.07957      6.22078     10.55245         0.033496      0.077006      0.026894
O	      8.44754      8.49522     10.71354         0.113815      0.180303      0.303107
