# total energy = -235.50952007 eV
 
CRYSTAL
PRIMVEC
0.035538 6.250415 6.399914 
6.346878 0.025759 6.410367 
4.261888 4.204465 -0.013899 
PRIMCOORD
36 1
Li	      0.14717      6.17580      6.25649        -0.026128      0.014109     -0.034905
Li	      2.30394      8.18145      6.43167         0.005895     -0.011113      0.086473
Li	      2.12966      6.26655      8.39858        -0.006207      0.024894     -0.010561
Li	      4.22896      8.35512      8.36689        -0.027438      0.022074     -0.027105
Li	      4.39444      6.21353     10.61866         0.014687      0.030260      0.001238
Li	      4.23970      8.45019      4.38485         0.002557     -0.009254     -0.021227
Li	      2.05719      6.30799      4.41390         0.049283     -0.023176      0.007810
Li	      4.18879      6.41412      6.31382        -0.003391     -0.011718     -0.022376
Li	      6.34683      6.33160      8.65111        -0.021071     -0.015031     -0.025485
Mn	      6.41415      8.29695     10.64620        -0.117192     -0.098060      0.113592
Mn	      2.11032      4.18513      2.23986        -0.070011     -0.030857      0.030026
Mn	      6.31419      8.45774      6.40200         0.028038     -0.032088     -0.088146
V	      4.32928      6.23691      2.13584        -0.058516      0.047360     -0.082728
V	      8.52561      6.18365      6.39507         0.033100     -0.179400      0.031744
V	      4.21555      4.33962      8.58650         0.109128      0.078614     -0.116109
Cr	      4.25489      4.21894      4.30051         0.030264      0.049737      0.011372
Fe	      6.36600      4.26432      6.40036        -0.012031      0.089246      0.054454
Co	      6.40533      6.24669      4.22191        -0.096559      0.050790     -0.006161
O	      2.05377      2.07877      2.13089         0.084468     -0.011637      0.086762
O	      4.21288      4.27014      2.32494         0.041156     -0.095317     -0.028293
O	      4.29683      2.14696      4.39589         0.002043      0.044697     -0.027311
O	      6.28028      4.08333      4.36190        -0.014750      0.014078     -0.078242
O	      6.21548      2.11401      6.45800         0.187242     -0.065493     -0.088168
O	      8.48270      4.37896      6.44922         0.132712      0.093864     -0.099503
O	      2.22167      4.20175      4.36438        -0.013264     -0.123297      0.123882
O	      4.34262      6.19132      4.21212         0.040276      0.012089      0.074522
O	      4.15058      4.07951      6.41320        -0.075186      0.025768     -0.030428
O	      6.51114      6.40886      6.34172         0.050042      0.061875     -0.044168
O	      6.27609      4.14437      8.48046        -0.055232     -0.010340      0.139455
O	      8.59716      6.43641      8.37150        -0.156861      0.061449      0.096143
O	      2.15387      6.12497      6.40779        -0.009443     -0.077930     -0.023821
O	      4.43707      8.38299      6.39444         0.080527     -0.011056      0.001554
O	      4.29301      6.08754      8.48789        -0.015334     -0.009654      0.002254
O	      6.52523      8.37292      8.42635        -0.113924      0.025149     -0.069854
O	      6.36889      6.42368     10.63082         0.072197      0.077289     -0.004383
O	      8.40312      8.37490     10.48082        -0.071076     -0.007921      0.067692
