# total energy = -232.55122576 eV
 
CRYSTAL
PRIMVEC
-0.014327 6.318322 6.204381 
6.369949 -0.002139 6.191886 
4.246107 4.203569 -0.000993 
PRIMCOORD
36 1
Li	      6.34287      6.37339     12.29346        -0.006538      0.018458     -0.048657
Li	      8.41113      8.44029     12.29684        -0.049408      0.025149      0.056948
Li	      6.38442      4.15829      2.23303         0.088170     -0.053485      0.021530
Li	      8.46070     10.40583     10.30571        -0.002953      0.036835      0.015831
Li	      6.49232      8.42312     10.30750         0.058800     -0.021555     -0.016487
Li	      6.38569      6.22012      4.10339        -0.027580      0.022642      0.019244
Li	      4.39377      4.17092      4.10692         0.087500     -0.045522     -0.068237
Li	      8.37253      6.44470     10.30591         0.027034     -0.024191      0.040476
Li	      8.41428      8.46464      8.39823        -0.076990      0.020959      0.034027
Mn	      2.14778      4.20542      2.11809         0.019456     -0.073002      0.039945
Mn	      6.38389      4.15995      6.10697         0.124396      0.054034     -0.163686
Mn	     10.48574      8.48754     10.31991        -0.093704      0.053902      0.084969
V	      4.26770      2.12553      2.16825        -0.032781      0.110517      0.087623
V	      4.24121      6.29438      6.16968         0.098578      0.039517      0.018727
V	      2.12713      4.32497      6.17575        -0.195029      0.403512      0.038493
Cr	      4.26598      6.25463      2.09918         0.078606      0.037022      0.068148
Fe	      4.29907      2.05659      6.04233        -0.179138     -0.136557      0.082354
Ni	      6.34418      6.32905      8.31379         0.015531      0.001163     -0.054054
O	      2.08399      2.26936      2.06691        -0.047955      0.022006     -0.017456
O	      4.28123      4.21618      2.11590        -0.046421     -0.026369      0.006546
O	      4.23372      2.10102      4.13505        -0.003293      0.050263     -0.073382
O	      6.37340      4.19901      4.26173         0.003974     -0.050272      0.112896
O	      6.28993      2.08752      6.27355         0.032287      0.022180      0.032475
O	      8.42838      4.29948      6.27452         0.011438     -0.101734     -0.000209
O	      1.91164      4.22531      4.19455         0.009679     -0.020246     -0.094429
O	      4.22655      6.44972      4.15075        -0.026325     -0.140867     -0.240358
O	      4.14586      4.15845      6.17174         0.147889      0.685109     -0.005386
O	      6.33836      6.39495      6.22486         0.554799      0.014650     -0.036458
O	      6.31977      4.12826      8.10926        -0.011182     -0.109873     -0.035263
O	      8.57543      6.15342      8.20399         0.034550      0.027937     -0.043321
O	      2.22597      6.14554      6.19937        -0.526308     -0.386175      0.011880
O	      4.38462      8.38996      6.31524        -0.047882     -0.432112     -0.037002
O	      4.24647      6.42552      8.15405        -0.033868     -0.068843      0.033439
O	      6.33511      8.37258      8.15675         0.055044      0.107314     -0.012590
O	      6.34139      6.20641     10.28462        -0.036697     -0.107193      0.182746
O	      8.59370      8.41502     10.35197        -0.003677      0.044828     -0.041324
