# total energy = -236.57158683 eV
 
CRYSTAL
PRIMVEC
0.006597 6.261979 6.367265 
6.431645 0.026846 6.347300 
4.293428 4.166842 0.012213 
PRIMCOORD
36 1
Li	      6.42099      0.06196      6.33884        -0.030055     -0.010325     -0.040425
Li	      6.45127      4.14892      2.20872        -0.037700     -0.008540      0.042237
Li	      6.43978      2.14350      4.25536        -0.018853     -0.005220      0.050313
Li	      4.38853      4.18217      4.32179         0.036940      0.034154      0.008067
Li	      4.33884      2.24655      6.34328        -0.015766      0.053442      0.052388
Li	      6.29378      4.14444      6.32541        -0.043022      0.035806      0.024068
Li	      8.55198      6.34635     10.54517        -0.048986      0.014574     -0.040426
Li	      4.33814      6.19613      6.44802         0.064683     -0.004623      0.039416
Li	      4.29680      4.19799      8.40783         0.094724     -0.003413     -0.036723
Mn	      8.58129      4.23446      8.40200        -0.019808      0.081618     -0.013871
Mn	      6.45529      6.20884      4.36366        -0.115708     -0.059233      0.126383
Mn	      6.44079      6.28460      8.45257         0.046617     -0.059111      0.025213
V	      2.08195      8.22793      6.32909        -0.107857      0.037689      0.065093
V	      4.28753      2.13036      2.09176         0.347133     -0.084966      0.182310
V	      4.28565      8.31173      4.31209         0.087200      0.091698     -0.283259
Cr	      8.53040      4.17065      4.24523         0.009825      0.005501     -0.009417
Fe	     10.63643      6.21478      8.44425         0.138106      0.088747      0.068371
Fe	      2.36552      4.27852      6.37300         0.027991     -0.102720     -0.042821
O	      2.17989      2.05152      1.98432         0.062823      0.038451     -0.157555
O	      4.28976      4.16654      2.14311        -0.084988      0.171051     -0.019425
O	      4.14587      2.03529      4.19886         0.223430      0.018904     -0.527579
O	      6.51692      4.29278      4.29152         0.067058     -0.089144     -0.010887
O	      6.54573      2.08108      6.44721         0.112674     -0.037846     -0.111542
O	      8.61191      3.94707      6.26109        -0.000622     -0.072486     -0.038459
O	      2.08641      4.03582      4.37291        -0.090081      0.099356      0.005778
O	      4.47269      6.30330      4.13234        -0.087811     -0.016713     -0.031910
O	      4.22486      4.23861      6.36032         0.006779      0.045293      0.031991
O	      6.46778      6.34791      6.51844        -0.016566      0.125850     -0.268380
O	      6.42844      4.19119      8.57047         0.107190     -0.281385      0.111721
O	      8.69518      6.31200      8.50943        -0.042962      0.028245      0.046800
O	      2.15840      6.36025      6.28284        -0.056231     -0.032218     -0.010917
O	      4.21827      8.33754      6.31271         0.014607     -0.025629      0.461987
O	      4.27337      6.39744      8.57422         0.000077     -0.187275      0.071829
O	      6.32018      8.35456      8.40011        -0.540445      0.128406      0.020181
O	      6.31850      6.20351     10.44204        -0.080724      0.001761      0.243651
O	      8.59606      8.40201     10.69085        -0.009672     -0.019700     -0.034203
