# total energy = -235.77645374 eV
 
CRYSTAL
PRIMVEC
0.001896 6.138989 6.246743 
6.628572 0.006222 6.242759 
4.428616 4.098471 -0.004576 
PRIMCOORD
36 1
Li	     10.95008      4.06929      6.25388         0.021596      0.006493     -0.028105
Li	      2.24803      2.09058      0.01636        -0.052673     -0.007634     -0.026417
Li	      4.31069      2.10531      2.03779        -0.063274      0.032092      0.036750
Li	      4.51418      6.13531      2.19707        -0.025996      0.003152     -0.011890
Li	      6.45659      6.16494      4.06074        -0.040243      0.020647      0.049436
Li	      4.47368      2.03641      6.18793         0.009518     -0.006347      0.005504
Li	      0.06117      4.09425      4.13034        -0.024372      0.051590      0.025901
Li	      2.27684      6.11442      4.22995        -0.000520      0.022948     -0.018546
Li	      6.61402      6.12582      8.39558         0.020954     -0.038918     -0.053775
Mn	      6.52641      4.18406      2.07908         0.026763     -0.081835      0.036079
Mn	      2.27448      4.08279      2.08785         0.007712      0.012480      0.041452
Mn	      6.74176      4.18486      6.26511         0.013300      0.033650     -0.048271
Mn	      4.39403      6.14947      6.22359        -0.007239     -0.015603      0.035658
V	      6.64306      1.99873      4.24328         0.012218      0.031356     -0.123256
V	      6.53446      8.14626      6.13822         0.032725     -0.009338     -0.017599
V	      8.92016      8.05456      8.36046         0.004073      0.019036     -0.011668
Cr	      4.48548      6.18159     10.39074        -0.065254     -0.027136     -0.017509
Cu	      4.36511      4.06615      4.11533         0.007944     -0.073507      0.026981
O	      2.18269      1.99251      2.05174         0.013632     -0.057827      0.005502
O	      4.39513      4.12645      2.14309         0.050816     -0.029127     -0.144633
O	      4.69471      2.07049      4.10887         0.018617     -0.063504     -0.060361
O	      6.86950      4.11124      4.10050         0.168523      0.024603     -0.021457
O	      6.69418      2.07858      6.01445         0.020976     -0.005591      0.146080
O	      8.86691      4.13363      6.15164         0.039715      0.011583     -0.007528
O	      2.08686      4.08521      4.25432        -0.073727      0.090599      0.046850
O	      4.42385      6.01858      4.32610        -0.097060      0.162256     -0.080918
O	      4.33621      4.15624      6.29043        -0.062952     -0.040129      0.099962
O	      6.69032      6.32861      6.33239        -0.007790     -0.076210     -0.033686
O	      6.44658      4.06469      8.33577        -0.007839      0.045793      0.008050
O	      8.80163      6.27593      8.33410        -0.033865     -0.018961     -0.028257
O	      2.18122      5.95312      6.30459        -0.024140      0.121420      0.003872
O	      4.56501      8.06540      6.23702        -0.010983      0.022238      0.106177
O	      4.40533      6.00640      8.27208         0.095871      0.016747      0.073076
O	      6.79467      8.30535      8.39277        -0.021588     -0.064684     -0.075740
O	      6.48061      6.24692     10.36483         0.008703     -0.067502      0.017906
O	      8.73986      8.23941     10.31482         0.045862     -0.044829      0.044378
