# total energy = -239.81873521 eV
 
CRYSTAL
PRIMVEC
-0.011400 6.490714 6.256697 
6.278812 0.007677 6.236736 
4.185587 4.313575 0.005595 
PRIMCOORD
36 1
Li	      4.25146     10.71424      6.25943        -0.074137     -0.062694     -0.006298
Li	      2.17348      8.50261      6.25245        -0.021045     -0.054537     -0.014701
Li	      4.19746      8.61258      8.27039         0.021493      0.017877      0.004881
Li	      6.31571      8.64681     10.34686         0.016083      0.027233     -0.000738
Li	      6.25632      6.42690      4.15357        -0.028589      0.000427      0.045712
Li	      4.23160      4.29652      4.13922        -0.024221     -0.007395      0.033956
Li	      4.11664      6.58775      6.32471         0.058227     -0.010119     -0.034574
Li	      8.29928      8.75120      8.37233        -0.007044     -0.009395     -0.018307
Li	      6.16716      6.52741      8.35589        -0.021520     -0.010088     -0.038823
Mn	      6.25151      4.31114      2.08684        -0.049442      0.036710      0.017406
Mn	      8.36932     10.79384     10.42647        -0.012278      0.037836      0.066132
Mn	      6.27640      2.16766      8.30939         0.035722     -0.043927      0.015739
Mn	      2.21490      4.18663      2.07395        -0.030189     -0.027722      0.007913
V	      4.17298      2.23480      6.17404        -0.051256      0.035380      0.080139
V	      6.22031      4.42226      6.27498         0.065232      0.081903      0.018612
V	      6.25038      8.65993      6.29784         0.060032     -0.103894     -0.092802
Cr	      8.32382      6.52256     10.39393        -0.005847     -0.048598     -0.015319
Fe	     10.40370      8.65927     10.42876         0.082302     -0.040796     -0.143246
O	      2.00411      2.04948      2.08507        -0.080475     -0.050533     -0.012613
O	      4.27944      4.29867      2.09553         0.054451     -0.092933      0.013358
O	      4.23363      2.16895      4.39153         0.002907      0.032755     -0.161044
O	      6.38636      4.30890      4.32295        -0.030660      0.048786     -0.100359
O	      6.17153      2.34705      6.37778         0.063676     -0.015460     -0.056376
O	      8.35829      4.44732      6.18257         0.048291      0.058765     -0.090462
O	      2.02588      4.43659      4.20380         0.025872      0.023792     -0.009596
O	      4.08086      6.57353      4.01724         0.020450     -0.043849      0.062463
O	      4.12506      4.20445      6.24730        -0.009300      0.007046      0.017268
O	      6.36263      6.46539      6.29121         0.020647      0.020482      0.049779
O	      6.31247      4.34881      8.29638        -0.020608      0.069136      0.087953
O	      8.44257      6.43426      8.24775         0.074628      0.032802      0.088166
O	      2.10368      6.41471      6.13141        -0.004198      0.071182     -0.007602
O	      4.26696      8.58426      6.15300        -0.102979      0.008367      0.125352
O	      4.04814      6.52700      8.49487         0.053621      0.011391     -0.030171
O	      6.24601      8.80387      8.23077         0.011169     -0.047603      0.153797
O	      6.24270      6.39622     10.37727        -0.005095      0.079493     -0.030302
O	      8.41241      8.54721     10.42242        -0.135917     -0.031821     -0.025293
