# total energy = -234.38227368 eV
 
CRYSTAL
PRIMVEC
0.008584 6.447995 6.181919 
6.337123 0.030003 6.159918 
4.240448 4.299346 0.004868 
PRIMCOORD
36 1
Li	      4.29022      6.43207     10.27606         0.019565      0.014807     -0.017267
Li	      6.36700      8.58813     10.26258        -0.027167      0.046456      0.003867
Li	      2.13875      4.28998      2.25667         0.084149     -0.063801     -0.075489
Li	      2.11323      2.35163      4.12094        -0.007429      0.011575      0.000762
Li	      4.05356      4.30019      4.07268         0.033962     -0.005630     -0.069167
Li	      0.25419      4.45906      4.06665        -0.027953      0.006109     -0.041513
Li	      1.98828      6.20254      4.11396         0.021502     -0.003841     -0.002289
Li	      2.13673      4.28402      6.00645         0.002062     -0.022559      0.098758
Li	      6.34708      6.47273      8.34663        -0.028481     -0.007968      0.006192
Mn	      6.38252      6.46755     12.24177         0.026633     -0.031560      0.058668
Mn	      4.14996      2.15863      6.05900        -0.034505      0.030226     -0.011787
Mn	      6.35677      4.34015      6.07472        -0.019128      0.106528     -0.050908
Mn	      4.22610      6.43685      6.06996        -0.015347     -0.068077     -0.112861
V	      4.33552      8.55348      8.34270         0.070951     -0.145909     -0.171445
V	      4.23791      6.45877      2.19133         0.030460     -0.058044      0.367166
V	      8.43803      8.58931      8.36453        -0.084977     -0.004378     -0.061445
Cr	      8.48106      8.65622     12.28952         0.060758      0.014117     -0.050498
Ni	      6.35732      4.31921      2.16243         0.058869     -0.005752     -0.068928
O	      2.13234      4.29265      4.14223         0.004210     -0.012875     -0.027724
O	      2.10496      2.11267      1.95541        -0.021269      0.146985      0.012519
O	      4.29861      4.32882      1.94285        -0.160177      0.075299     -0.072859
O	      4.20139      2.20966      3.91677        -0.037607     -0.009580      0.133788
O	      6.30397      4.26861      4.21206        -0.032206     -0.138219      0.279936
O	      6.42189      2.28616      6.24381         0.052695      0.046337     -0.007044
O	      8.58482      4.24678      6.14794         0.019268      0.011716      0.005052
O	      4.28848      6.41584      3.93661         0.026706      0.002959     -0.141194
O	      4.15245      4.32488      6.43291        -0.016095     -0.009874      0.058709
O	      6.33642      6.27399      6.18430         0.013282     -0.111023      0.025919
O	      6.22795      4.17880      8.14238        -0.026480      0.038362     -0.029261
O	      8.60368      6.60680      8.22337         0.036984      0.037231      0.047355
O	      2.05698      6.62094      6.17085        -0.028469      0.065538     -0.046123
O	      4.14790      8.57453      6.36776        -0.033921      0.017258     -0.043037
O	      4.20671      6.51343      8.27667         0.053366      0.031342      0.010653
O	      6.31037      8.65610      8.25441        -0.003060     -0.065743     -0.001534
O	      6.34768      6.49425     10.38769         0.003436      0.011012     -0.081177
O	      8.48935      8.64372     10.18072        -0.014587      0.050975      0.074208
