# total energy = -241.11605187 eV
 
CRYSTAL
PRIMVEC
-0.010117 6.344625 6.452669 
6.143493 0.017327 6.425634 
4.119166 4.235069 -0.012029 
PRIMCOORD
36 1
Li	      2.12488      8.42959      6.39300        -0.022432     -0.021120     -0.049850
Li	      4.09690      8.40200      8.43913        -0.022370     -0.011002     -0.044430
Li	     10.23545      6.40984      8.60173         0.009360      0.022255      0.040129
Li	      4.09875      4.23558      4.49216        -0.032279      0.030392      0.048949
Li	      4.06287      2.22929      6.42377         0.034296     -0.009084      0.011494
Li	      4.14124      8.46406      4.45163        -0.000807     -0.027363      0.020454
Li	      6.13601      8.46270      6.44625        -0.008272      0.023081      0.027333
Li	      4.14768      6.30808      6.50130        -0.040778     -0.014297     -0.016054
Li	      4.09413      4.27161      8.46854        -0.015022      0.005242      0.014240
Mn	     10.23001     10.53823     12.82212         0.013265      0.034422      0.007435
Mn	      2.05570      6.36698      8.49511        -0.021155      0.039209     -0.028961
Mn	      8.21264     10.49046     10.67598         0.024812     -0.046398      0.008543
Mn	      6.05672      2.12482      4.24785         0.027596     -0.036658      0.018414
Mn	      6.09721      4.19152      6.45900         0.070732      0.011810     -0.005761
V	      2.14323      4.20178      2.18996         0.019524     -0.013001     -0.008609
V	      6.12103      6.42434      4.36658        -0.053805      0.032822      0.009818
V	      2.15180      6.39632      4.32170         0.048979     -0.117538      0.014488
Cr	      6.15284      6.39796      8.50532         0.013764      0.032836      0.018503
O	      1.99831      2.23388      2.33833         0.003242      0.011426      0.006021
O	      3.97139      4.30317      2.07436        -0.023224      0.005695      0.000290
O	      3.91860      2.09811      4.31822         0.108182      0.096370      0.031381
O	      6.10006      4.33808      4.35198        -0.047986     -0.022292      0.018415
O	      6.10454      1.99480      6.20815        -0.013351     -0.037055     -0.074659
O	      8.14473      4.17814      6.51176        -0.015136     -0.006456      0.038581
O	      2.09731      4.23593      4.17327         0.016751     -0.056040      0.046907
O	      4.25443      6.41298      4.34592        -0.025066      0.050237     -0.007634
O	      4.24884      4.21174      6.48897         0.009691     -0.014623      0.005097
O	      6.17422      6.39484      6.42302         0.011205      0.021165      0.040666
O	      6.31518      4.34872      8.47001        -0.032640     -0.000564     -0.028801
O	      8.19046      6.26026      8.71385         0.007772     -0.007692     -0.078797
O	      1.98137      6.31708      6.31012        -0.015162     -0.000798      0.017319
O	      4.10055      8.65776      6.43296        -0.008407     -0.000787     -0.013690
O	      4.15271      6.35508      8.56764         0.075422     -0.020260     -0.044574
O	      6.11162      8.43497      8.74216        -0.010012     -0.061833      0.049722
O	      6.21750      6.32334     10.58584        -0.069525     -0.024261     -0.078991
O	      8.11989      8.32685     10.69689        -0.017162      0.132160     -0.013391
