# total energy = -220.06073570 eV
 
CRYSTAL
PRIMVEC
0.047526 6.262195 6.182648 
6.340558 0.049449 6.181409 
4.247148 4.194309 0.012523 
PRIMCOORD
36 1
Li	      4.25709      4.23031      0.10728         0.185194     -0.092993     -0.083432
Li	      6.26591      4.17693      2.01463        -0.040988     -0.051308     -0.135799
Li	      6.33951      2.15422      4.20800         0.053490     -0.090722     -0.040520
Li	      2.22942      4.20390      2.04960         0.008206      0.071310      0.054771
Li	      4.26437      4.18651      4.17906        -0.068006      0.019192     -0.082683
Li	      4.34874      2.25325      6.18072        -0.013256     -0.094694     -0.043974
Li	      2.28622      4.24503      6.18432         0.009649      0.182402     -0.037959
Li	      4.22110      6.17033      6.22004        -0.237571      0.069416     -0.028816
Li	      4.23167      4.21574      8.11239        -0.041871     -0.034564      0.135928
V	      8.41075      4.21573      4.19217         0.159153     -0.095343      0.011072
V	      6.37217      6.32454      4.19187        -0.095891      0.244408     -0.073175
V	      6.43249      6.31177      8.21821         0.467644      0.098494      0.058264
Cr	      4.23850      2.17363      2.01230         0.027066      0.060245     -0.143369
Cr	      4.27862      8.38101      4.20243         0.035799     -0.044965      0.168908
Co	      2.18716      6.24172      4.20444        -0.007947     -0.058420     -0.623341
Cu	      6.20900      4.12332      6.17459         0.188949      0.114758     -0.019866
Ni	      2.08321      2.07315      0.04439         0.165266     -0.382793     -0.001415
Ni	      4.22613      6.16325      2.03443        -0.068991      0.070779      0.169080
O	      4.30962      4.19726      6.17206        -0.017485     -0.069420     -0.017772
O	      2.16780      2.14539      2.19216         0.061441     -0.040623      0.119989
O	      4.26454      4.14000      2.07495        -0.006663     -0.178718      0.047002
O	      4.12059      2.03454      4.05272         0.073054      0.034099      0.009830
O	      6.51669      4.32384      3.97874        -0.162924     -0.127312      0.131206
O	      6.39941      2.17787      6.24145        -0.192454      0.100386     -0.166895
O	      8.44208      4.23486      6.00931        -0.012267      0.137709      0.025668
O	      2.03227      4.10638      4.18235        -0.127637      0.031725      0.044035
O	      4.33874      6.36664      4.05654         0.030450      0.128973      0.151385
O	      6.39814      6.23715      6.08811         0.009549     -0.053336      0.078971
O	      6.39129      4.42298      8.36557        -0.027678     -0.120136     -0.169985
O	      8.42743      6.32149      8.42657        -0.213797      0.058006     -0.177509
O	      2.15831      6.28126      6.00999        -0.135857      0.064751      0.711684
O	      4.16432      8.34984      6.20555         0.080840      0.044014      0.001146
O	      4.40573      6.36264      8.35268        -0.043641      0.006478      0.018409
O	      6.30471      8.17648      8.21838        -0.023914      0.051410     -0.036350
O	      6.33933      6.26809     10.23455        -0.124630     -0.083646      0.034092
O	      8.57760      8.47267     10.31250         0.107720      0.030439     -0.088579
