# total energy = -93.09179822 eV
 
CRYSTAL
PRIMVEC
2.075189 4.192417 2.074843 
4.239855 -4.250651 0.027294 
4.212392 -0.000140 -4.211395 
PRIMCOORD
16 1
Li	      2.18281     -2.15421      0.00728         0.119081     -0.290083     -0.062074
Li	      4.27230      0.02861      0.03387         0.246396      0.015794      0.156408
Li	      4.32532     -2.09819     -2.12535         0.127172      0.069025      0.122365
Li	      6.37427     -0.08973     -2.13943         0.005572     -0.186287      0.171524
Mn	      0.14635     -0.00106     -0.02127        -2.336085      0.110572      0.051139
Mn	      2.19581      2.06348     -0.02652        -0.290023      1.179747     -0.550724
Ni	      2.24518     -0.00127     -2.11992        -0.444283     -0.050913     -0.557014
Ni	      4.30934      2.06328     -2.13959        -0.396387      0.517459      0.234243
O	      6.40868     -0.17976      0.10203         0.136999     -0.395754     -0.115026
O	      6.43601     -2.18348     -1.96523         0.051712      0.140306      0.582634
O	      4.09818      2.12371     -0.02750         0.065898     -0.405081     -0.153505
O	      4.26335     -0.00419     -2.29806         0.572845     -0.156044      0.060822
O	      8.70795     -0.05620     -2.13041         0.141993     -0.212812      0.123270
O	      4.39334     -2.30733      0.01089         0.644684      0.083973     -0.198366
O	      6.39788      2.24734     -2.25944         0.155628     -0.424794      0.036579
O	      2.03081      0.12001      0.00036         1.198797      0.004892      0.097725
