# total energy = -219.19899683 eV
 
CRYSTAL
PRIMVEC
-0.013512 6.285150 6.055298 
6.388356 -0.025188 6.066985 
4.248958 4.187909 -0.006800 
PRIMCOORD
36 1
Li	      4.20102      2.13756      2.13138        -0.067146      0.056096      0.113639
Li	      4.16883      0.07842      4.02605         0.010849      0.139545     -0.008244
Li	      6.26179      2.15050      4.02630        -0.159206     -0.015262     -0.013176
Li	      4.27635      6.25043      2.12937         0.015583     -0.020943     -0.021135
Li	      2.17892      4.14790      2.15991         0.061228     -0.033598     -0.027779
Li	      6.30488      6.28133      4.00722         0.126789      0.016329      0.006071
Li	      4.22687      4.27658      3.99252         0.017778     -0.149926      0.018340
Li	      2.31217      6.16186      4.03737         0.000500      0.002323     -0.013995
Li	      4.31218      6.24626      5.92878         0.002369      0.037194      0.025551
V	      6.34150     -0.01537      6.02089         0.019519     -0.116053     -0.014532
V	      8.50596      8.35445     12.08282         0.121515     -0.151041      0.135179
V	      4.29475      4.17402      8.12375        -0.064955     -0.188435      0.061191
Cr	      6.34949      4.17136      2.05443        -0.001703     -0.006616      0.019761
Cr	      6.39405      4.19696      5.97867        -0.006697     -0.000178     -0.013167
Co	      4.23669      2.11705      5.99189        -0.183926      0.294881      0.101035
Cu	      4.39971      8.21153      4.03169         0.034004      0.098603      0.074991
Cu	      2.13110      4.12506      5.97324        -0.007697     -0.004942      0.006639
Ni	      6.33764      6.30298      8.15821         0.022338      0.104314      0.032953
O	      2.11971      1.98909      1.84437        -0.028130     -0.005967     -0.097721
O	      4.32503      4.22008      1.86258        -0.006478     -0.006248     -0.069505
O	      4.26193      2.06382      4.19449         0.038784      0.018105     -0.135187
O	      6.39408      4.15782      4.01046        -0.008755      0.010973     -0.017323
O	      6.43533      2.08833      6.03884        -0.227945     -0.045704     -0.006723
O	      8.51171      4.08558      6.11327        -0.030092      0.391932     -0.062008
O	      2.10184      4.17874      4.08767         0.036638      0.019636     -0.075548
O	      4.26299      6.32253      4.03576         0.034720     -0.137762      0.004535
O	      4.40696      4.15927      6.12431        -0.040253     -0.664697     -0.173828
O	      6.48590      6.20509      6.10949         0.485454      0.025035     -0.116988
O	      6.23763      4.24918      7.98108         0.033172     -0.077960     -0.014176
O	      8.42674      6.45294      7.95783         0.162302      0.173064      0.183740
O	      1.96643      6.34863      6.08860         0.048458      0.211463     -0.023794
O	      4.06815      8.52223      6.15606        -0.261490     -0.038515     -0.013564
O	      4.16708      6.07729      8.07698        -0.071441     -0.030049     -0.046998
O	      6.46467      8.39546      7.98128        -0.024747      0.114867      0.072107
O	      6.34485      6.22337     10.22931        -0.018871     -0.010727      0.145438
O	      8.52770      8.31428     10.15762        -0.062467     -0.009736     -0.035778
