# total energy = -218.69479570 eV
 
CRYSTAL
PRIMVEC
0.021707 6.340963 6.126277 
6.294611 0.010781 6.137765 
4.200229 4.238270 0.003833 
PRIMCOORD
36 1
Li	      4.29304      4.20360      0.17833         0.111424     -0.061249     -0.267607
Li	      2.08291      2.08322      0.22187         0.042447     -0.126069     -0.257005
Li	      1.90592      0.14357      1.98094         0.179964     -0.138622     -0.147916
Li	      4.05331      2.35028      1.98627         0.134352     -0.168321     -0.097981
Li	      4.17539      6.10871      2.05639        -0.043105      0.196920     -0.042878
Li	      2.34097      4.26562      2.03573        -0.228123      0.043497     -0.021882
Li	      4.15322      4.27821      3.85706         0.019067      0.034703      0.231635
Li	      2.19037      6.27035      3.94781         0.051248     -0.001746      0.196598
Li	      6.40992      6.35707      8.17205        -0.068070     -0.023913      0.035798
V	      6.30032      8.37607     10.13044         0.165970     -0.067056      0.090062
V	      6.31257      4.23341      6.19097        -0.324252      0.014177      0.214733
V	      0.06767      4.20023      4.03130        -0.114609      0.064609      0.496545
Cr	      4.21108      6.32493     10.16645        -0.128464     -0.051475     -0.127413
Cr	      2.10223      2.13777      3.97393        -0.049261     -0.038816      0.242896
Co	      4.07038      6.40430      6.24153         0.805829      0.047791     -0.131364
Ni	      8.39919      6.35270      6.22085         0.029689      0.066218     -0.092223
Ni	      6.31079      8.47608      6.18625        -0.096044      0.291550      0.080276
Ni	      8.43300      8.42137      8.21121         0.007800      0.151105     -0.034414
O	      2.11043      2.11299      2.10295        -0.049570      0.059533      0.102798
O	      4.21743      4.22928      2.01408        -0.051274      0.044861      0.006137
O	      4.23854      1.99044      4.13031        -0.163061      0.128117     -0.086604
O	      6.35700      4.22198      4.18486        -0.050624      0.088729     -0.144825
O	      6.26465      2.27283      5.95104         0.057294     -0.036275      0.130013
O	      8.15251      4.28841      6.10438         0.114066     -0.049352      0.025661
O	      2.01346      4.14100      4.12396         0.131167     -0.161733     -0.235753
O	      4.30887      6.50370      4.11907         0.044628     -0.193450     -0.083998
O	      4.35926      4.26348      6.14050         0.092531     -0.252291     -0.145270
O	      6.23495      6.31167      6.08549        -0.046305     -0.042285     -0.014831
O	      6.30796      4.28113      8.28513         0.082910     -0.025090     -0.230506
O	      8.40587      6.44437      8.15248         0.001841     -0.217713      0.114671
O	      2.27154      6.24191      6.09264        -0.361289     -0.055957      0.110072
O	      4.23529      8.43733      5.94996        -0.068141      0.368722     -0.108421
O	      4.26710      6.23829      8.19156        -0.017910     -0.044840      0.141641
O	      6.33256      8.46165      8.33487        -0.099168     -0.020986     -0.011881
O	      6.21728      6.39782     10.27734        -0.089842      0.033960     -0.024861
O	      8.38544      8.54032     10.25409        -0.023114      0.142749      0.088097
