# total energy = -223.01263377 eV
 
CRYSTAL
PRIMVEC
-0.010131 6.257301 6.144499 
6.293902 -0.014607 6.148281 
4.193199 4.171724 -0.006878 
PRIMCOORD
36 1
Li	      4.17331     10.37309      6.11332        -0.039642     -0.022080      0.043653
Li	      2.15282      8.30182      6.15301         0.047695     -0.005383      0.020818
Li	      4.06123      2.15773      2.04922        -0.049871      0.003540      0.030214
Li	      4.29444      6.13838     10.23651        -0.034117      0.020258     -0.002995
Li	      6.46101      8.22671     10.25828         0.012195      0.020145     -0.008439
Li	      2.20681      4.05140      2.11866        -0.008172     -0.010838     -0.019989
Li	      2.01438      2.21096      4.05905         0.019267     -0.014518     -0.001194
Li	      3.99319      4.24197      4.07128        -0.018085     -0.031306      0.031471
Li	      2.05908      6.25135      4.15128        -0.009487      0.001176      0.008185
V	      6.20262      4.19753      2.11472         0.039366      0.025744      0.020429
V	      4.23409      2.03781      5.93589        -0.021355     -0.025354      0.050162
V	      6.34293      4.15766      5.98696        -0.065441      0.000649      0.009021
Cr	      4.16459      6.25673      2.08842         0.010292     -0.021961     -0.033021
Cr	      6.31306      6.26924      8.24292        -0.008343     -0.018581     -0.125708
Co	      4.19599      8.37748      4.15309        -0.256842      0.133065     -0.363310
Co	      4.22169      4.18197      8.19134         0.025879     -0.041206      0.023604
Cu	      4.12459      6.29239      6.08964        -0.063977     -0.023446     -0.047959
Ni	      6.20155      8.33723      6.10945         0.151526      0.003133      0.072613
O	      1.96442      1.96890      2.07008        -0.009984      0.049861      0.006871
O	      4.25949      4.27152      2.13428        -0.117209      0.043418      0.028948
O	      4.19893      2.13008      4.20447         0.027086     -0.027012     -0.139924
O	      6.34871      4.12605      4.00751         0.019983     -0.018539      0.028845
O	      6.20300      2.10276      6.20506         0.086275      0.019459     -0.048816
O	      8.29451      4.28453      6.17214         0.072191     -0.015484     -0.048160
O	      1.91969      4.20431      4.09899        -0.043985      0.000983      0.038055
O	      4.15852      6.39208      4.08697         0.010890      0.034641     -0.001415
O	      4.25069      4.16279      6.17961         0.051694     -0.006350      0.003424
O	      6.45253      6.24771      6.19639         0.107740     -0.104325      0.012714
O	      6.17956      4.19142      8.05719        -0.041574     -0.050063     -0.003010
O	      8.38847      6.40137      8.06820         0.008782      0.055070      0.031291
O	      2.00022      6.17447      6.42152        -0.096958      0.097244     -0.073202
O	      4.18151      8.24085      6.20038        -0.077929      0.079222      0.185086
O	      4.24893      6.13087      8.13630         0.082757     -0.051030      0.102772
O	      6.46780      8.29992      8.21062         0.023148     -0.061625      0.099506
O	      6.30425      6.13953     10.17271         0.013079     -0.009362      0.075635
O	      8.55163      8.31590     10.09696         0.153125     -0.029145     -0.006174
