# total energy = -222.27502028 eV
 
CRYSTAL
PRIMVEC
-0.070007 6.202360 6.088408 
6.452400 -0.042276 6.061002 
4.292891 4.108931 -0.020193 
PRIMCOORD
36 1
Li	      0.11536      6.12009      6.02460        -0.005761     -0.031787     -0.027423
Li	      2.16130      8.13281      6.05490         0.080725     -0.038119      0.000346
Li	      6.45103      8.14439     10.08085        -0.039273     -0.033155      0.031218
Li	      4.27801      6.19412      2.05286         0.084706      0.005380      0.169728
Li	      6.29941      6.20126      4.09501        -0.180505      0.062157     -0.037188
Li	      4.25776      4.33026      4.07376        -0.037450      0.141687     -0.004740
Li	      2.12109      6.23064      4.21672         0.144380     -0.044643      0.061571
Li	      6.22657      8.35707      6.08042        -0.181051     -0.049813     -0.127654
Li	      4.04541      6.23455      6.07842        -0.046319      0.067053     -0.199390
V	      2.25646      4.06256      2.16923        -0.106860     -0.137669      0.588266
V	      4.32467      2.10229      6.00849        -0.014524     -0.233862     -0.174795
V	      6.46293      4.04917      6.02369         0.074205      0.010815      0.008032
Cr	      6.36233      4.10855      1.96252        -0.109887      0.116420     -0.153914
Cr	      8.52840     10.23255     10.07021         0.242975     -0.061848      0.075200
Co	      4.24833      2.05321      1.96637         0.039498      0.133733     -0.189530
Co	      4.10763      8.12436      4.16829         0.447316      0.819732     -0.185422
Cu	      8.38710      8.12663      8.04998         0.152344      0.029369      0.191830
Cu	      6.39279      6.19139      8.09566        -0.006110     -0.006242      0.058841
O	      2.27505      2.09144      2.01214         0.115926      0.008894      0.008828
O	      4.26186      4.01538      2.02222        -0.015811     -0.164772      0.019788
O	      4.31191      1.96416      4.13864        -0.002138     -0.040145      0.247952
O	      6.54150      4.13454      4.06776         0.072828     -0.048019      0.041888
O	      6.36850      2.19777      6.03105        -0.049545      0.198323      0.013682
O	      8.50093      4.10863      6.02736        -0.095766      0.067079     -0.053133
O	      2.15807      4.14747      3.94234         0.012455     -0.067758     -0.569324
O	      4.26428      6.32666      4.03109        -0.088588     -0.540931      0.133383
O	      4.45801      4.04994      6.07383        -0.012774     -0.020466      0.274832
O	      6.60139      6.04621      6.12267         0.180113     -0.116426     -0.054804
O	      6.71053      4.13637      8.02052         0.070853     -0.049307     -0.103502
O	      8.76404      5.93497      7.86657         0.056089      0.291583     -0.177803
O	      2.04244      6.19955      6.15758        -0.028405     -0.014845      0.230121
O	      4.23882      8.25753      6.10998        -0.143418     -0.147364      0.125120
O	      4.02926      6.32704      8.12140        -0.208940     -0.231620      0.095327
O	      6.11660      8.25436      8.10552         0.096306      0.160898      0.086655
O	      6.24649      6.01044     10.02631        -0.270682     -0.011098      0.096734
O	      8.54388      8.24543     10.03189        -0.226910     -0.023235     -0.500717
