# total energy = -223.66441874 eV
 
CRYSTAL
PRIMVEC
0.022413 6.254821 6.286030 
6.190820 0.007928 6.300070 
4.133275 4.185466 -0.000639 
PRIMCOORD
36 1
Li	      6.24372      6.25395     12.51528         0.018040     -0.014810     -0.012494
Li	      6.20202     10.36534      8.35287         0.009686      0.004952     -0.012472
Li	      4.25360      8.39648      8.37022         0.011078     -0.031508     -0.014178
Li	     10.24870      6.33556      8.39341        -0.034990      0.033778     -0.002034
Li	      8.24029      6.22478      6.36976         0.015159      0.014391     -0.008769
Li	      6.20715      4.18981      6.37141        -0.046943      0.006586      0.028221
Li	      8.23548      6.26496     10.43252         0.008157      0.019922     -0.007500
Li	      6.17000      8.39118      6.39781         0.036746      0.022728      0.025484
Li	      6.29540      6.28466      8.43539        -0.024003      0.004099      0.025011
V	      1.97878      2.08410      0.09122         0.133989     -0.224367     -0.061274
V	      4.13897      4.21347      4.11245        -0.000521     -0.028792      0.219885
V	      4.19093      6.24786      6.43143        -0.059895     -0.114203      0.021762
Cr	      6.24122      8.30684     10.43296        -0.020304     -0.013622     -0.042640
Cr	      8.21652      4.25044      8.37668        -0.161801     -0.016628      0.068687
Co	      4.13032      0.04413      4.24017         0.022896     -0.077762     -0.032850
Co	      8.28703      8.21370      8.32229        -0.214319      0.147126     -0.050691
Ni	      2.07594      2.07926      4.13797         0.079717     -0.046209      0.007593
Ni	      6.20996      4.21344     10.45556        -0.050824      0.049730     -0.012632
O	      2.08846      2.17926      2.01804         0.057352      0.089998     -0.034316
O	      4.08806      4.21681      2.29221        -0.045916     -0.048049     -0.125806
O	      4.17329      2.19493      4.24025         0.077274      0.004342      0.070489
O	      6.14416      4.15410      4.17871        -0.036845     -0.060002      0.048362
O	      6.36590      2.05289      6.22035        -0.122632     -0.004273     -0.009612
O	      8.28910      4.05766      6.37948        -0.011624      0.171617     -0.068375
O	      2.11918      4.13774      4.11776         0.062626      0.119792     -0.083328
O	      4.16672      6.20530      4.28625        -0.099362     -0.038436      0.003754
O	      4.08976      4.34695      6.13473         0.013144     -0.030156     -0.120387
O	      5.98891      6.29271      6.20916         0.026812      0.013066      0.132478
O	      6.20143      4.17832      8.43919        -0.117384     -0.011048     -0.163299
O	      8.27646      6.22148      8.33076         0.123584      0.162423     -0.049890
O	      2.23983      6.34062      6.32036        -0.016532      0.021653      0.004121
O	      4.04898      8.19508      6.23052         0.012528     -0.012916      0.099013
O	      4.17120      6.23991      8.21365        -0.008049     -0.133036      0.218935
O	      6.27653      8.36328      8.46672         0.437873     -0.093635     -0.000246
O	      6.15524      6.30909     10.51810         0.034312      0.087655     -0.071754
O	      8.25862      8.38517     10.58849        -0.109028      0.025594      0.010753
