# total energy = -225.03100554 eV
 
CRYSTAL
PRIMVEC
-0.018533 6.177040 6.252007 
6.301378 -0.031677 6.265460 
4.208450 4.134830 -0.028953 
PRIMCOORD
36 1
Li	      4.20060     10.18509      6.16796         0.016771      0.060360     -0.005557
Li	      4.17920      8.27885      8.15141        -0.018520      0.019972     -0.022326
Li	      6.30990      2.00962      4.20892        -0.014964      0.004171      0.038631
Li	      2.14666      4.09372      2.07304         0.045419     -0.039883      0.162286
Li	      4.16736      4.07866      4.22423        -0.080244      0.011679      0.013152
Li	      4.21334      8.30325      4.27277         0.119607     -0.042278     -0.034460
Li	      2.02414      6.13472      4.28646        -0.017249     -0.059188      0.052384
Li	      6.13595      8.25376      6.16453        -0.021600     -0.051225     -0.161302
Li	      4.17314      6.29882      6.17492         0.033234     -0.048221     -0.063648
V	      6.22325     10.23862      8.20638        -0.030398      0.067054      0.070168
V	      4.20493      6.17019      2.16527        -0.037549     -0.059990      0.212434
V	      6.29460      6.14468      8.36954        -0.006795      0.033487     -0.086085
Cr	      4.21465      0.00416      4.18317        -0.026972      0.160759      0.078308
Cr	      8.40680      8.20759      8.33852        -0.146875      0.076095     -0.162623
Co	      2.23289      8.24264      6.16028         0.031828     -0.035288      0.037218
Co	      2.14301      2.22492      4.19235         0.004820     -1.148841     -0.411111
Co	      4.21780      2.03526      6.27523        -0.136567     -0.053494     -0.109455
Cu	      6.28993      4.08363      6.19698         0.010660      0.097865      0.078506
O	      1.96841      1.99664      2.05595         0.158433      0.059653     -0.208135
O	      4.31136      4.20356      2.05217         0.106862      0.060682     -0.075413
O	      4.17441      2.01979      4.34604        -0.083958      0.100802      0.176820
O	      6.38823      4.26715      3.90191         0.081938      0.413471      0.051302
O	      6.20714      2.07730      6.43474         0.009775     -0.101475     -0.035229
O	      8.30012      4.18658      6.16706         0.092667      0.069208     -0.175845
O	      2.11600      3.99055      4.15128         0.092373      0.335167      0.112782
O	      4.20340      6.16348      3.96994        -0.049332      0.011852      0.068916
O	      4.32317      3.97670      6.33252        -0.100152     -0.105253      0.247282
O	      6.45573      6.12106      6.26587         0.191816      0.128177      0.158271
O	      6.21100      4.09576      8.45033        -0.047037     -0.063971      0.117422
O	      8.43548      6.18352      8.24571         0.077802     -0.013696     -0.051879
O	      2.12660      6.16477      6.42733        -0.000179      0.058305     -0.220939
O	      4.16354      8.23754      6.23259        -0.254588      0.028745     -0.016363
O	      4.17275      6.09443      8.39112        -0.037607      0.010509     -0.008862
O	      6.37189      8.23578      8.28999        -0.057030     -0.020436      0.059384
O	      6.20334      6.20495     10.31342         0.115466     -0.005434      0.132361
O	      8.32260      8.31006     10.36552        -0.021853      0.040657     -0.018395
