# total energy = -225.01305118 eV
 
CRYSTAL
PRIMVEC
0.009930 6.307634 6.257346 
6.306818 0.015578 6.251721 
4.221538 4.218226 -0.006466 
PRIMCOORD
36 1
Li	      6.24053     10.37563      8.31875         0.029644      0.014200      0.108242
Li	      6.32938      8.42468     10.23766        -0.008729      0.015713      0.038244
Li	      4.23261      6.28983      2.17103        -0.091996      0.101486      0.141545
Li	      4.12173      4.35620      4.11342        -0.080281      0.143749      0.033965
Li	      2.21182      6.20506      4.20463         0.065487     -0.098867     -0.059678
Li	      6.33417      8.49245      6.35813         0.031674     -0.114649     -0.157066
Li	      4.18092      6.27693      6.18682         0.069871     -0.028499     -0.158067
Li	      8.26754      8.38854      8.31265         0.040808     -0.027458     -0.044429
Li	      6.35447      6.47078      8.29932         0.037722     -0.132933     -0.016389
V	      2.11490      2.03858      0.08064         0.448284     -0.069677      0.198451
V	      4.21331      6.27183     10.24306        -0.099289      0.218052     -0.315248
V	      8.41463      6.41983      6.33760        -0.316578      0.129919      0.155266
Cr	      4.24353      4.21804      0.01905        -0.086575     -0.012834     -0.014405
Cr	      6.30977      4.22563      6.31609        -0.180408      0.244516      0.152444
Co	      2.12715      4.23295      2.15832        -0.086149      0.307534      0.321323
Co	      2.05150      2.17776      4.14182        -0.198118     -0.207601      0.064584
Co	      0.07619      4.07317      4.10931        -0.426402      0.916042     -0.132679
Ni	      4.34825      8.48350      8.33490         0.005569     -0.082006      0.122658
O	      2.22800      2.11818      2.04006        -0.248463     -0.102508     -0.908624
O	      4.19828      4.21452      2.01260        -0.030248     -0.070810     -0.154151
O	      4.22965      1.89392      4.30074         0.083247     -0.002216     -0.047163
O	      6.54322      4.24863      4.27343         0.204901     -0.075716     -0.021183
O	      6.26300      2.11893      6.25223         0.496906     -0.125717      0.006206
O	      8.42700      4.22577      6.21573         0.109305     -0.213491     -0.049627
O	      2.05592      4.22525      4.19093         0.384496     -0.163349     -0.006252
O	      4.17984      6.41477      4.17290         0.382060     -0.563932      0.000444
O	      4.33451      4.09143      6.19208         0.077893     -0.044565      0.023888
O	      6.44825      6.21511      6.20957         0.112045      0.043864      0.169687
O	      6.36483      4.21765      8.31626         0.108472     -0.024483     -0.565697
O	      8.42727      6.32459      8.12387        -0.028328      0.007185     -0.124756
O	      2.00550      6.45106      6.20715        -0.128242      0.326026      0.094960
O	      4.15984      8.51634      6.22307        -0.626449     -0.046842      0.272922
O	      4.21684      6.32969      8.50500        -0.021494     -0.040202      0.169332
O	      6.30750      8.42487      8.32352         0.087560      0.036234     -0.003000
O	      6.10986      6.25227     10.50836        -0.068195     -0.053736      0.027875
O	      8.43920      8.62976     10.52863        -0.050001     -0.202428      0.676379
