# total energy = -227.43256752 eV
 
CRYSTAL
PRIMVEC
0.025009 6.315926 6.239730 
6.319146 0.038796 6.225808 
4.230786 4.219464 0.007722 
PRIMCOORD
36 1
Li	      0.07319      6.28207      6.16470         0.017884      0.083504      0.055072
Li	      4.35122      8.31473      8.37414         0.032151     -0.065383      0.061701
Li	      4.28206      6.38204     10.31345        -0.018838      0.131625     -0.118992
Li	      2.22862      2.18238      4.14625         0.088017     -0.053883     -0.011913
Li	      4.21752      2.11759      6.15683        -0.014987      0.013283      0.016612
Li	      6.41702      4.39775     10.41288         0.071886      0.125774     -0.080094
Li	      8.34959      6.31447     10.44018        -0.050044     -0.055171     -0.079317
Li	      6.30551      8.48553      6.24991         0.020003     -0.027923      0.085836
Li	      6.23811      6.43998      8.35936        -0.067364      0.030781     -0.000685
V	      2.27066      8.40477      6.15412        -0.911694     -0.924711     -0.179675
V	      4.20391      6.32936      2.19015         0.165607     -0.186830      0.154579
V	      6.33487      4.36028      6.19167        -0.073788      0.086660     -0.132567
Cr	      2.11996      4.23107      2.11213         0.176190      0.016966      0.096542
Cr	      4.19504      4.15939      4.18879         0.065720     -0.132107     -0.340544
Co	      6.41041     10.50701      8.33141        -0.099800      0.037486      0.063556
Co	      6.28884      8.25019     10.32863        -0.342583      0.283852     -0.321137
Co	      4.20928      6.34938      6.24754         0.019582     -0.046594      0.168404
Co	      8.40086      8.47163      8.35713        -0.122546      0.136297     -0.122310
O	      1.99809      2.16461      1.99644         0.275578      0.369085     -0.254085
O	      4.17183      4.33183      2.12669        -0.290503      0.085869     -0.010117
O	      4.27066      2.19696      4.14555        -0.018876      0.069112      0.077854
O	      6.23799      4.11958      4.24805         0.073048      0.012088      0.385448
O	      6.46097      2.26628      6.36769        -0.102639     -0.033674      0.171706
O	      8.33592      4.17676      6.29506         0.168313     -0.424693      0.002640
O	      2.20609      4.20167      4.09866        -0.115141      0.066364      0.061729
O	      4.26363      6.27296      4.05224         0.113894      0.031160     -0.136124
O	      4.35919      4.20280      6.18704        -0.094249      0.003580     -0.039003
O	      6.34669      6.14891      6.24385         0.017762     -0.081707     -0.037426
O	      6.39282      4.16491      8.26675        -0.076971     -0.074896      0.019484
O	      8.61474      6.30870      8.29644        -0.151710     -0.072639     -0.076658
O	      2.12173      6.45577      6.24055         0.027646      0.860927     -0.290111
O	      4.05147      8.48407      6.23797         0.513186      0.004655     -0.086496
O	      4.20526      6.28802      8.26120         0.310747      0.041013     -0.029053
O	      6.38673      8.44506      8.32802        -0.056270     -0.277813     -0.114155
O	      6.31898      6.45625     10.39927         0.094773     -0.163830      0.117309
O	      8.34996      8.46984     10.49747         0.356018      0.131775      0.921991
