# total energy = -216.45758737 eV
 
CRYSTAL
PRIMVEC
-0.029424 6.219629 6.315536 
6.381038 0.017270 6.269764 
4.250637 4.111492 0.016033 
PRIMCOORD
36 1
Li	      6.34140     10.32847      8.42070        -0.037192     -0.002807     -0.012216
Li	     10.47755      6.20644      8.49942        -0.070867      0.027233      0.025659
Li	      8.49867      4.21175      8.44261        -0.013733     -0.003978      0.059063
Li	      4.12798      4.27497      4.30718        -0.075251      0.027633      0.015598
Li	      2.21288      6.12199      4.04805        -0.007469      0.005883     -0.047924
Li	      2.29907      4.07279      6.26640        -0.009561      0.004297     -0.027692
Li	      4.33731      6.06094      6.24694         0.031801      0.026756     -0.009957
Li	      4.22551      4.09678      8.28847         0.011354      0.007916      0.004679
Li	      6.48255      6.21734      8.28937         0.042864     -0.003205     -0.013683
V	      0.08779      6.22309      6.37850         0.037340      0.023590     -0.130388
V	      4.20000      8.18557      8.42131         0.036970      0.041999     -0.086286
V	      6.37153      8.34483     10.42320        -0.012390     -0.103658      0.049205
Cr	      8.49241      2.10655      6.31778         0.019291     -0.014663      0.073653
Cr	      6.44234      4.12540     10.34925        -0.059301      0.139849      0.131554
Cu	      4.23278      6.23793     10.45850         0.011108      0.024361     -0.124942
Ni	      6.27900      6.20792      4.22813         0.035640     -0.040552     -0.141664
Ni	      8.38936      6.25838      6.42032         0.093104     -0.097615     -0.144314
Ni	      6.22831      4.19252      6.42529         0.116393     -0.126496      0.104010
O	      8.49811      6.18580      8.34685         0.004422     -0.013657      0.134073
O	      2.26191      2.04863      2.05538        -0.023330      0.006658     -0.023012
O	      4.25591      3.93167      1.98847        -0.056862      0.053823      0.121770
O	      4.31888      2.00319      4.10977         0.045029      0.115145      0.014404
O	      6.29134      3.93846      4.27949        -0.072463      0.142683     -0.034046
O	      6.45363      2.03756      6.24583         0.102842      0.003942      0.055315
O	      8.67220      4.11487      6.21817        -0.009961     -0.018917      0.090207
O	      1.94949      4.13117      4.20770         0.112344      0.086646      0.024649
O	      4.25082      6.30640      4.20543        -0.148785     -0.106906      0.041749
O	      4.25383      4.10498      6.30608        -0.132822      0.084708     -0.023528
O	      6.40915      6.13885      6.22058        -0.059984      0.113223      0.079367
O	      6.33692      4.20223      8.48752        -0.033757      0.004078     -0.113477
O	      1.89425      6.28889      6.34334         0.093956      0.029842      0.010688
O	      4.11095      8.35176      6.31582         0.000799     -0.064203      0.032080
O	      4.21415      6.37995      8.40968        -0.028762     -0.127715     -0.098613
O	      6.23897      8.28091      8.54964        -0.037851     -0.028759     -0.119822
O	      6.44803      6.37021     10.61316         0.085480     -0.056632      0.016135
O	      8.45241      8.38264     10.58247         0.009603     -0.160501      0.067706
