# total energy = -217.60527023 eV
 
CRYSTAL
PRIMVEC
0.049918 6.193714 6.399167 
6.246499 0.037510 6.412373 
4.188902 4.162316 0.000410 
PRIMCOORD
36 1
Li	      2.25112      8.25713      6.48040        -0.022435      0.072121     -0.035192
Li	      2.30334      6.32858      8.52700        -0.059536     -0.043864      0.027159
Li	      4.13530      8.11085      8.46985         0.023036      0.029894      0.073308
Li	      4.17987      6.20285     10.41350        -0.019975      0.034162      0.055731
Li	      6.26996      6.19444      4.21665         0.015360      0.027595      0.062100
Li	     10.43560      8.35854     10.73941         0.025459     -0.002876      0.083011
Li	      4.21870      6.34364      6.63050        -0.006897     -0.049697     -0.054021
Li	      4.29098      4.33810      8.54603        -0.007207     -0.017014     -0.010256
Li	      6.06447      6.16851      8.50827         0.012296      0.001390     -0.011675
V	      6.36436      8.31722     10.42102        -0.028752      0.036780      0.006575
V	      8.37830      6.14206      6.36959        -0.021099     -0.129140     -0.122264
V	      2.15279      6.24743      4.38370        -0.033105     -0.061514     -0.068340
Cr	      4.17517      4.17131      4.32590        -0.011399     -0.047260      0.049843
Cr	      6.24766      8.29404      6.52705         0.197024     -0.011938      0.028921
Cu	      4.17928      4.14269      0.01588         0.008123     -0.031524     -0.005093
Cu	      0.06502      2.06724      2.14380         0.018923     -0.036495     -0.007725
Cu	      2.10153      4.08778      2.17328         0.029940     -0.011765      0.029696
Ni	      6.27507      4.15264      6.39455         0.011354      0.054818      0.040176
O	      4.19261      6.22303      8.51925        -0.028873     -0.029520     -0.037727
O	      1.93426      2.13473      2.17070         0.105744      0.029837      0.017174
O	      4.11560      4.32556      2.34825        -0.050843      0.023397      0.037742
O	      4.24653      2.16504      4.34082         0.067606      0.075216     -0.009820
O	      6.17633      4.09379      4.34991        -0.062302     -0.069874     -0.235418
O	      6.17329      2.03448      6.10512         0.084570     -0.030337     -0.185845
O	      8.37816      4.31430      6.23593         0.023204      0.096546     -0.107152
O	      2.15340      4.21611      4.52155        -0.022471      0.054817      0.128408
O	      4.01326      6.18365      4.45812        -0.044219      0.055837      0.071681
O	      4.16080      3.96042      6.37556        -0.077564      0.038267      0.040969
O	      6.41294      6.25693      6.46615        -0.062651      0.108046      0.038222
O	      6.36337      3.98922      8.40439         0.051310      0.066741      0.119440
O	      8.58534      6.17802      8.45134        -0.032353      0.007075      0.029753
O	      2.04740      6.17041      6.33622        -0.036232     -0.116400      0.074400
O	      4.29429      8.41350      6.46554        -0.147208     -0.116818      0.028105
O	      6.26682      8.35575      8.62279         0.026339     -0.026807     -0.048929
O	      6.53608      6.30121     10.46568         0.030898     -0.024734     -0.087320
O	      8.29800      8.23607     10.66521         0.043940      0.045038     -0.015638
