# total energy = -92.85944107 eV
 
CRYSTAL
PRIMVEC
2.085411 4.213069 2.085064 
4.260741 -4.271590 0.027429 
4.233143 -0.000141 -4.232141 
PRIMCOORD
16 1
Li	      2.21465     -2.15473      0.01762         0.154204     -0.375347     -0.077538
Li	      4.31450      0.02889      0.03420         0.326022      0.012730      0.199676
Li	      4.36804     -2.11891     -2.14634         0.155615      0.082582      0.156797
Li	      6.43722     -0.09062     -2.16056         0.014894     -0.234674      0.225125
Mn	      0.19991     -0.00136     -0.03193        -3.207636      0.130168      0.053402
Mn	      2.23849      2.06282     -0.02664        -0.367992      1.539412     -0.687844
Ni	      2.29862     -0.00158     -2.13045        -0.573001     -0.061012     -0.733162
Ni	      4.37289      2.06262     -2.16059        -0.514345      0.661650      0.286845
O	      6.47198     -0.18154      0.10304         0.214537     -0.470309     -0.152197
O	      6.49957     -2.20505     -1.98464         0.091061      0.142379      0.724282
O	      4.13865      2.14468     -0.02777         0.111231     -0.494770     -0.221194
O	      4.30546     -0.00423     -2.32076         0.726962     -0.168603      0.093259
O	      8.79396     -0.05675     -2.15145         0.138417     -0.300868      0.180679
O	      4.43673     -2.33012      0.01100         0.823707      0.124678     -0.214134
O	      6.46107      2.26953     -2.28175         0.167532     -0.579196      0.060270
O	      2.05087      0.12119      0.00037         1.738792     -0.008818      0.105735
