# total energy = -216.90341417 eV
 
CRYSTAL
PRIMVEC
0.025297 6.398604 6.433289 
5.976570 -0.029591 6.489401 
3.988080 4.306866 -0.023799 
PRIMCOORD
36 1
Li	      2.06173      8.52214      6.35947        -0.115382      0.039824     -0.040990
Li	      1.96259      6.38123      8.42831         0.018291      0.009231      0.018140
Li	      7.93621      4.32570      4.35246         0.066754     -0.073650      0.006636
Li	      1.99022      4.29784      2.26779        -0.131615      0.045608     -0.042070
Li	      1.97874      2.30738      4.36791         0.087265     -0.106550      0.038467
Li	      7.93546      6.28321      6.54590         0.062012     -0.029003      0.037460
Li	      4.14654      8.40556      4.30899        -0.189979      0.056206     -0.127381
Li	      2.04059      6.23168      4.40679        -0.118692      0.098692     -0.025366
Li	      1.98502      4.38677      6.20388         0.084624      0.039796      0.103699
V	      3.84886      2.18614      2.05730        -0.147016      0.764314     -0.242682
V	      5.91183      2.14576      4.33013         0.625739     -0.102586      0.295388
V	      8.00478      8.49546      8.62219         0.111100     -0.160324      0.085347
Cr	      6.06865      4.24769      6.46369         0.005113      0.119979      0.110141
Cr	      3.96540      6.40726      6.46796        -0.014423     -0.299104     -0.012302
Cu	      9.98686     10.66952     12.89247        -0.059313      0.201859     -0.309044
Cu	      4.04024      6.35103      2.27472         0.017887     -0.076082     -0.033154
Cu	      3.93217      4.37888      4.26669         0.112342     -0.047833      0.144630
Cu	      6.05008      6.37463      8.59818         0.189093      0.004599      0.121258
O	      1.96532      6.44308      6.41054         0.112916     -0.006047      0.056075
O	      2.07700      2.05319      2.18874         0.877788     -0.014855     -0.061818
O	      3.95624      4.15412      1.94776        -0.149133     -1.322323      0.402196
O	      4.06938      2.20904      4.12700        -0.490245      0.083774     -0.659509
O	      5.89260      4.15672      4.44819        -0.109192      0.147176     -0.133708
O	      5.99247      2.25247      6.14378        -0.055866      0.091377     -0.117331
O	      8.01927      4.27556      6.38080        -0.031132     -0.052266     -0.029907
O	      2.04419      4.27382      4.26467         0.059306     -0.087291      0.021343
O	      4.02567      6.34773      4.48555         0.074212      0.083574      0.064306
O	      3.99371      4.35875      6.75126        -0.020337      0.100750     -0.023080
O	      5.98097      6.23268      6.59694        -0.035182     -0.066679     -0.248823
O	      5.96700      4.03054      8.53534        -0.033119      0.240501     -0.031491
O	      7.99979      6.58295      8.59532        -0.106465     -0.059306      0.036375
O	      4.05304      8.39218      6.58738        -0.073667     -0.132403      0.664055
O	      4.07390      6.44176      8.53503        -0.277034      0.329803      0.074439
O	      5.96092      8.67159      8.76763        -0.282606      0.195385     -0.198732
O	      6.02499      6.70977     10.70646        -0.064623     -0.046335     -0.025233
O	      7.90560      8.70150     10.47830         0.000580      0.030190      0.082664
