# total energy = -224.02071746 eV
 
CRYSTAL
PRIMVEC
0.033044 6.221446 6.376677 
6.184704 0.017967 6.392349 
4.120113 4.155156 0.015019 
PRIMCOORD
36 1
Li	      4.05369      4.10390      0.10961         0.067488     -0.062324     -0.036612
Li	      6.14415      4.14938      2.23005         0.076226     -0.078847      0.059149
Li	      4.05643      2.15093      2.18448        -0.023413     -0.062852      0.063062
Li	      8.15807      4.25620      4.38507         0.024582      0.007472     -0.002265
Li	      4.18598      4.07473      4.20070         0.000346     -0.038467      0.021705
Li	      4.09344      2.05452      6.29411        -0.034664      0.072715     -0.046749
Li	      6.30495      4.16269      6.29778        -0.078898      0.038372     -0.077232
Li	      6.19224      8.33548      6.41789        -0.001966      0.012838      0.004061
Li	      4.13809      4.20737      8.44583        -0.020318      0.063672     -0.011964
V	      6.20314      4.20481     10.67048        -0.053149      0.106474      0.066075
V	      4.15938      6.09816      6.45600        -0.045234      0.004054      0.028489
V	      6.19972      6.35417      8.48510        -0.048878      0.158491      0.095362
Cr	      6.12492      2.17399      4.33638        -0.102174      0.026902     -0.091661
Cr	      2.12723      6.20418      4.26843        -0.303658      0.079754      0.017177
Fe	      6.20559      1.97386      8.36893        -0.026673     -0.040350      0.046872
Co	      2.07728      8.27856      6.38380         0.067985     -0.040794     -0.021307
Cu	      2.11067      4.10270      2.04331        -0.005591     -0.094747      0.057110
Cu	      2.19869      1.98354      4.23740         0.008585     -0.041860     -0.000968
O	      1.96283      1.95714      1.93100         0.064288      0.152528     -0.194103
O	      4.05525      4.20788      2.11144        -0.042913      0.072622      0.002120
O	      4.14464      2.08736      4.32254         0.143338     -0.010725     -0.029547
O	      6.20465      4.14810      4.25030        -0.041031     -0.116542      0.075689
O	      6.26587      2.11716      6.37483         0.021807     -0.045780      0.049933
O	      8.26809      3.98353      6.46403        -0.023684     -0.077806     -0.010666
O	      1.99565      4.15198      4.22384         0.064135      0.360905      0.018630
O	      4.17950      6.27461      4.25367        -0.277742     -0.066222      0.000609
O	      4.10110      4.34757      6.37665         0.064418      0.077077      0.023646
O	      6.15389      6.29038      6.56956        -0.134823     -0.011695      0.330383
O	      6.23001      4.33123      8.64640        -0.058367     -0.079074     -0.059246
O	      8.28014      6.38668      8.62853         0.055612     -0.078162      0.012927
O	      2.14793      6.27223      6.27145         0.157425      0.068092     -0.070675
O	      4.05763      8.16040      6.30077        -0.064372     -0.016880     -0.027330
O	      4.24651      6.22547      8.39063         0.209626      0.008018     -0.218612
O	      6.19825      8.18870      8.66667         0.030305     -0.082484     -0.043313
O	      6.29516      6.30666     10.57969         0.101647     -0.163028     -0.062194
O	      8.24988      8.25754     10.78221         0.229733     -0.101347      0.031447
