# total energy = -225.15139273 eV
 
CRYSTAL
PRIMVEC
0.027615 6.300765 6.138083 
6.353387 0.019635 6.145740 
4.249004 4.218975 0.000158 
PRIMCOORD
36 1
Li	     10.49605      4.17697      6.15983        -0.058533      0.008801      0.065204
Li	      4.19904      2.17441      2.01197         0.017883      0.038757      0.017261
Li	      8.49076      4.22278      8.11613        -0.004192      0.038520     -0.009420
Li	      2.20200      2.20949      4.06461         0.018191      0.036612     -0.038698
Li	      4.12260      4.15581      4.17148        -0.050348     -0.036159      0.004046
Li	      8.39005      6.24951      6.17627        -0.050902     -0.042699     -0.005704
Li	      6.43974      4.28092      6.14180        -0.035125      0.017193      0.028104
Li	      2.15804      4.21057      6.09049        -0.002657      0.036971      0.058322
Li	      6.42671      6.33926      8.14682        -0.004695      0.013046     -0.022993
V	      6.27555      2.14400      4.17419        -0.039834      0.002524     -0.010439
V	      4.27696      6.21781      2.01465         0.091426     -0.233590     -0.005125
V	      4.39038      6.26956      6.15060         0.035632      0.022715      0.014705
Cr	      8.46690      4.25808      4.13137        -0.030074      0.091888     -0.099464
Cr	      8.49824      8.38251      8.15803        -0.028333      0.010585     -0.087759
Fe	      0.19380      4.24328      4.11823        -0.141361     -0.095254     -0.053223
Co	      2.07984      0.04570      2.02661        -0.008870     -0.233334      0.218077
Ni	      2.18587      2.16364      0.03135        -0.042758     -0.006869      0.086769
Ni	      2.13875      6.27326      4.10387         0.000392      0.010450     -0.004689
O	      1.98591      2.12144      2.05128         0.152079     -0.254803      0.070844
O	      4.21195      4.41827      2.03608        -0.048354     -0.086178      0.050849
O	      4.37207      2.03735      4.09281        -0.082427     -0.005526     -0.006792
O	      6.45372      4.08791      4.09020        -0.091753      0.194555     -0.417683
O	      6.41267      2.10473      6.07533        -0.074698     -0.023997      0.019978
O	      8.46534      4.21186      6.06333        -0.002518      0.120107     -0.023163
O	      2.06875      4.26201      4.06958         0.138946     -0.113696      0.001443
O	      4.23291      6.37793      4.07711         0.046098      0.023974      0.043838
O	      4.21488      4.33505      6.20014         0.025369     -0.043871      0.005466
O	      6.17327      6.34005      6.13460         0.151569     -0.007296     -0.012744
O	      6.26340      4.03577      8.24565         0.041929      0.047514     -0.041514
O	      8.58026      6.39596      8.18908        -0.023868      0.020327     -0.109175
O	      2.35375      6.38360      6.12778        -0.109814     -0.011081      0.514691
O	      4.26564      8.34032      6.09795         0.128615      0.041117      0.045855
O	      4.27027      6.20773      8.16312         0.056160     -0.041260      0.040120
O	      6.47226      8.41981      8.39615         0.076490      0.341889     -0.160117
O	      6.33016      6.33051     10.23634        -0.109167      0.045907      0.004944
O	      8.46987      8.46844     10.21689         0.059502      0.072159     -0.181811
