# total energy = -228.54579771 eV
 
CRYSTAL
PRIMVEC
0.015542 6.206559 6.310034 
6.138528 0.034677 6.290195 
4.109856 4.142202 0.005633 
PRIMCOORD
36 1
Li	      0.08959      6.17300      6.32238         0.020943     -0.026495      0.005715
Li	      2.12873      6.12740      8.31791         0.023053     -0.071948      0.080192
Li	      4.09257      8.27191      8.35640         0.144290     -0.125237      0.056762
Li	      4.11873      6.23933     10.36009        -0.006955      0.036653     -0.227974
Li	      6.20374      6.16897      4.21316         0.013919     -0.045943      0.057790
Li	      6.15352      4.17503      6.29998        -0.081011      0.050185     -0.017339
Li	      2.02977      6.25596      4.31161        -0.001495     -0.022642     -0.039071
Li	      6.12161      8.33735      6.47464         0.037685     -0.096645      0.148235
Li	      6.10924      6.28416      8.38943        -0.091139      0.072023     -0.003642
V	      0.08550      2.06739      2.06018        -0.317899     -0.034910      0.385158
V	      4.09065      4.13243      4.21544         0.116832      0.004935      0.143883
V	      6.18500      4.29958     10.51556         0.067954      0.063369     -0.163042
Cr	      6.18845      8.24014     10.49016        -0.119997     -0.004930     -0.405149
Cr	      4.11211      6.22125      6.34863         0.155483     -0.161175      0.111130
Fe	      8.06206      6.10418      6.31543        -0.142360      0.359000     -0.053985
Co	      8.19108      2.12668      6.29717         0.208457     -0.268682     -0.047539
Co	      2.06672      4.15508      2.11651        -0.093009      0.178041      0.206551
Co	      4.07482      4.19231      8.39091        -0.097542      0.012839     -0.418435
O	      2.01355      2.23718      2.13394         0.216727     -0.103516     -0.723366
O	      3.99404      4.16684      2.20862         0.095043      0.019539     -0.017148
O	      4.14573      2.11885      4.28876         0.015922      0.028507      0.095323
O	      5.94523      4.06627      4.17167        -0.059790      0.002021      0.055091
O	      6.15473      2.09300      6.29235         0.335673      0.054867     -0.009552
O	      8.18844      4.14240      6.47560         0.031204     -0.269874     -0.027559
O	      2.15083      4.17369      4.08663         0.019898      0.017077     -0.064199
O	      4.13544      6.19597      4.17327        -0.005471      0.008624      0.007092
O	      4.05346      4.15788      6.26495         0.029134     -0.014447     -0.722248
O	      6.16566      6.21103      6.27877        -0.152737     -0.032333     -0.024814
O	      6.17019      4.16154      8.50667         0.850585     -0.156689     -0.101996
O	      8.30701      6.25944      8.30640         0.138320     -0.736071     -0.073081
O	      2.14269      6.33209      6.31382        -0.086090      0.394263     -0.035335
O	      4.06782      8.22619      6.22664        -0.386978      0.078382      0.038251
O	      4.10950      6.10259      8.30464         0.203142      1.032492     -0.154001
O	      6.27786      8.27472      8.51591        -1.103611     -0.177458      0.126099
O	      6.15251      6.22859     10.52841         0.039471     -0.063528      0.060897
O	      8.19987      8.34658     10.35430        -0.017652     -0.000293      1.751306
