# total energy = -222.12472392 eV
 
CRYSTAL
PRIMVEC
0.047232 6.232362 6.170026 
6.363611 0.024602 6.193927 
4.249895 4.179216 0.007897 
PRIMCOORD
36 1
Li	      2.24940      8.25852      6.16707         0.012340     -0.031891     -0.009514
Li	      2.22220      6.23417      8.13995         0.001597     -0.013514      0.007320
Li	      6.37668      6.29244      4.28439        -0.047363      0.000946     -0.122865
Li	      4.19692      4.14853      4.20416         0.006799      0.009136     -0.002967
Li	      8.28713      6.22969      6.16346         0.030267      0.013478     -0.016080
Li	      6.42309      4.41577      6.15601        -0.000164     -0.013079      0.001828
Li	      0.09459      4.16242      4.16704         0.016090     -0.002447     -0.036550
Li	      4.36891      6.30000      6.11574         0.025773      0.001560     -0.036754
Li	      6.34645      6.29059      8.09388        -0.028086      0.020423      0.098358
V	      6.32542      2.19594      4.17652         0.015818      0.000044      0.084410
V	      0.09905      2.06655      2.08034         0.044088     -0.027322     -0.048690
V	      4.31696      4.22468      8.13825        -0.022427      0.010396      0.092054
Cr	      0.09233      6.19886      6.14587        -0.065340      0.047611      0.005583
Cr	      4.27752      8.25982      8.23638        -0.011729     -0.005608      0.014692
Fe	      8.47067      4.21241      8.25697        -0.054904      0.041904     -0.134558
Cu	      8.46018      4.19914      4.21678        -0.087768     -0.024373      0.056311
Ni	      2.20255      6.23920      4.14749         0.002545      0.070770     -0.027397
Ni	      6.35614      8.27238      6.10981         0.026557      0.058239      0.022336
O	      2.14226      2.15008      2.06746         0.026693     -0.061978      0.023155
O	      4.19087      4.13813      2.00724         0.029940     -0.042254      0.032689
O	      4.34511      2.01225      4.07161        -0.034788      0.079301      0.020568
O	      6.24555      3.96122      4.23704        -0.015921      0.086899      0.021612
O	      6.43755      2.01270      6.28874        -0.011823     -0.027520      0.001628
O	      8.60199      4.20531      6.23966         0.026448     -0.011431      0.082857
O	      2.12999      4.21309      3.99617         0.024550     -0.045649      0.055888
O	      4.27697      6.20732      3.88624         0.078276      0.014098      0.063879
O	      4.17522      4.20002      6.38434         0.114992      0.000390     -0.107368
O	      6.36234      6.30787      6.18774        -0.010697     -0.145385     -0.053629
O	      6.33980      4.07863      8.21539         0.033344      0.033887     -0.021068
O	      8.67488      6.34445      8.25227        -0.019287     -0.055759     -0.087981
O	      2.08999      6.15657      6.14874        -0.002747      0.113214      0.167382
O	      4.29157      8.36672      6.24278        -0.111409      0.032214     -0.008503
O	      4.25440      6.22699      8.34563         0.025749      0.033212     -0.102614
O	      6.38246      8.33094      8.36288        -0.011114      0.009402     -0.026196
O	      6.53089      6.44315     10.36889        -0.060773     -0.085320      0.002387
O	      8.45031      8.38824     10.16861         0.054472     -0.083591     -0.012204
