# total energy = -221.47239899 eV
 
CRYSTAL
PRIMVEC
-0.032105 6.510869 6.356334 
6.054104 -0.077947 6.402841 
4.027149 4.362348 -0.042048 
PRIMCOORD
36 1
Li	      5.98822      0.04312      6.27242        -0.009046      0.033863      0.064028
Li	      8.05579      8.73126     12.57177         0.032069      0.078454      0.033715
Li	      4.03587      8.59683      8.46464        -0.065185      0.027450     -0.040358
Li	      8.08522     10.56680     10.73959        -0.090551      0.073645      0.062659
Li	      8.03842      4.50391      8.39479         0.093324     -0.033862      0.007875
Li	      8.13895      6.29681      6.46421         0.016135     -0.058739      0.054390
Li	      5.88195      4.43229     10.51014         0.058518      0.000199     -0.005584
Li	      7.97283      6.68200     10.47848         0.069710      0.004769      0.055405
Li	      8.07467      8.58813      8.67581         0.012678     -0.029606     -0.083707
V	      2.07467      2.10446      4.17309         0.000675      0.003972     -0.049436
V	      4.02203      4.26795      4.12697        -0.020778      0.058900      0.065512
V	      5.91890      8.71601      6.33464         0.098866     -0.000096     -0.027618
Cr	      3.94801      6.51453      6.30524         0.035687     -0.125399     -0.074327
Cr	      6.05798      6.51863      8.51160        -0.052161     -0.002963     -0.060687
Fe	      6.20109      4.13690      6.50949        -0.207460      0.081985     -0.075663
Cu	      6.03421      8.47310     10.73355        -0.072038     -0.009610      0.012839
Cu	      9.98029      6.51546      8.49312         0.053245     -0.024017      0.043448
Ni	      6.09761     10.74470      8.46737        -0.056724      0.009176      0.062614
O	      7.91514      8.62756     10.63101         0.170415     -0.000048     -0.026338
O	      1.94694      2.01352      2.38758         0.093891     -0.004481      0.023866
O	      4.08916      4.19930      2.35032        -0.093575     -0.024729      0.005380
O	      4.02897      2.30083      4.32897        -0.018561      0.024063     -0.001510
O	      6.02591      4.45239      4.35304         0.002444      0.061976      0.074208
O	      6.05718      2.21806      6.58169         0.020215     -0.134529     -0.242900
O	      8.05495      4.28495      6.40037         0.168253      0.011084     -0.033021
O	      2.06113      4.09540      4.31805         0.026675      0.022182      0.056009
O	      4.07268      6.33251      4.24779        -0.032263     -0.044446      0.170264
O	      3.94439      4.47528      6.16468         0.072403      0.014778      0.007394
O	      5.98755      6.59513      6.26009        -0.014280     -0.016747      0.100191
O	      6.01673      4.52394      8.41198        -0.045918      0.181431      0.114222
O	      8.05573      6.47975      8.49305        -0.280124      0.094383      0.024193
O	      1.96054      6.31400      6.43565         0.021838     -0.076139     -0.118223
O	      4.10840      8.56241      6.21746        -0.115186     -0.063093     -0.034813
O	      4.04148      6.58088      8.27370         0.110247     -0.012950      0.017166
O	      6.07802      8.62311      8.22540        -0.004251     -0.087287     -0.111142
O	      5.97191      6.53436     10.45864         0.020811     -0.033569     -0.070053
