# total energy = -221.77063009 eV
 
CRYSTAL
PRIMVEC
0.046083 6.215954 6.196519 
6.384485 0.034585 6.207116 
4.268831 4.163396 0.010772 
PRIMCOORD
36 1
Li	      4.22949     10.19924      6.22921         0.032987      0.100373      0.031733
Li	      2.37996      8.37187      6.19065        -0.004242     -0.041709     -0.044181
Li	      4.26761      8.36329      8.08159         0.019462      0.011932      0.042718
Li	      6.34988      2.09014      4.23685         0.024502     -0.040541      0.033225
Li	      2.18542      4.06200      1.99944         0.020425      0.034521      0.016132
Li	      2.17139      2.11654      4.12367         0.012776      0.011012      0.025376
Li	      4.32232      8.26569      4.34668         0.001742     -0.002062     -0.072525
Li	      6.16198      8.33368      6.19618        -0.017996      0.057412     -0.013366
Li	      4.28684      6.46499      6.13988        -0.055094     -0.059910      0.007041
V	      2.09519      0.10580      2.00106        -0.023116     -0.081404     -0.065084
V	      2.19035      6.21969      4.26222        -0.082801      0.059168      0.040148
V	      6.37045      6.31703      8.26252         0.022431      0.035161      0.165427
Cr	      6.45389      4.14753      6.18461         0.029309     -0.096503     -0.049914
Cr	      4.28277      4.17005      8.24480        -0.029274     -0.032605      0.032932
Fe	      4.24400      4.07339      4.17516         0.049095      0.096675     -0.055846
Ni	      8.52826      4.21576      4.19634         0.074123     -0.081650     -0.007226
Ni	      0.04643      2.05615      2.05527        -0.015125      0.027273      0.028104
Ni	      4.33676      2.05509      6.19293        -0.003743     -0.016638      0.047911
O	      4.29691      8.32446      6.20180         0.023033     -0.026204     -0.020665
O	      2.14594      1.89284      2.08851         0.034203      0.001315      0.026304
O	      4.44189      4.15920      2.13798        -0.000617     -0.094419     -0.007148
O	      4.22443      2.13172      4.16810        -0.023032     -0.016820     -0.099503
O	      6.38170      4.16594      4.09503        -0.073280      0.001775      0.066747
O	      6.36431      2.18673      6.27837         0.068360      0.040232     -0.126768
O	      8.44779      4.20579      6.19327        -0.090362     -0.117920      0.123502
O	      2.23611      4.33809      4.09024        -0.060745     -0.042121      0.016008
O	      4.16339      6.15749      4.09888         0.002625     -0.009793      0.090577
O	      4.41241      4.14362      6.20554         0.042483      0.110737      0.073050
O	      6.46107      6.20722      6.40798        -0.032004      0.021431     -0.059880
O	      6.31954      4.24239      8.20014        -0.041844      0.099646     -0.041636
O	      8.44775      6.32104      8.35145        -0.044272      0.047669      0.026184
O	      2.17790      6.23977      6.21060         0.001666     -0.057899      0.043642
O	      4.32352      6.17355      8.32409         0.001076     -0.012069     -0.073920
O	      6.54577      8.34474      8.24321         0.055369      0.045020     -0.013310
O	      6.47059      6.23889     10.15537         0.056267      0.034672     -0.118684
O	      8.53727      8.16394     10.26296         0.025612     -0.005758     -0.067106
