# total energy = -92.55830855 eV
 
CRYSTAL
PRIMVEC
2.095634 4.233721 2.095285 
4.281627 -4.292529 0.027563 
4.253894 -0.000141 -4.252886 
PRIMCOORD
16 1
Li	      2.24668     -2.15515      0.02807         0.186882     -0.452676     -0.090482
Li	      4.35690      0.02918      0.03454         0.403497      0.011340      0.245738
Li	      4.41098     -2.13974     -2.16744         0.183274      0.097878      0.189398
Li	      6.50049     -0.09150     -2.18179         0.028124     -0.282339      0.279093
Mn	      0.25399     -0.00167     -0.04268        -4.151331      0.139710      0.047871
Mn	      2.28148      2.06205     -0.02677        -0.431680      1.885695     -0.805886
Ni	      2.35246     -0.00188     -2.14098        -0.697760     -0.074415     -0.903457
Ni	      4.43686      2.06185     -2.18168        -0.619555      0.795388      0.321435
O	      6.53558     -0.18332      0.10405         0.290395     -0.531042     -0.183480
O	      6.56345     -2.22672     -2.00415         0.122738      0.145846      0.846826
O	      4.17933      2.16576     -0.02805         0.161251     -0.578862     -0.278653
O	      4.34777     -0.00428     -2.34357         0.882027     -0.176643      0.128425
O	      8.88038     -0.05731     -2.17259         0.110369     -0.383174      0.225970
O	      4.48033     -2.35301      0.01111         0.991244      0.156849     -0.231451
O	      6.52457      2.29184     -2.30418         0.177549     -0.731546      0.086759
O	      2.07102      0.12239      0.00037         2.362976     -0.022009      0.121893
