# total energy = -226.63571401 eV
 
CRYSTAL
PRIMVEC
0.006363 6.366894 6.181401 
6.278024 0.011456 6.176196 
4.203532 4.259067 -0.010685 
PRIMCOORD
36 1
Li	      6.19734      6.38107     12.22700         0.015621     -0.042697      0.050446
Li	      8.42657      8.61510     12.20004         0.036372      0.030761      0.030156
Li	      8.40037      4.26841      4.32817         0.014977     -0.006581     -0.089916
Li	      6.27515      2.13957      4.21545        -0.033004      0.035955     -0.006046
Li	      4.19673      4.18015      4.19778         0.042328      0.037048     -0.000332
Li	      8.38535      6.21179      6.05122        -0.020243     -0.061264     -0.008621
Li	      6.43122      4.27242      6.05868         0.026976      0.018385      0.026326
Li	      2.02742      6.37196      4.22387         0.018258      0.007443      0.007701
Li	      2.09276      4.28839      6.08514        -0.035744      0.006125      0.046046
V	      6.27009      4.23835      2.09809        -0.138921      0.015375     -0.159041
V	      6.23341      2.14057      8.08925         0.113071      0.015814      0.254735
V	      4.12164      6.34636      6.08960        -0.046256      0.180130     -0.075559
Cr	      4.19299      2.14948      2.09761        -0.007946      0.097327     -0.077924
Cr	      6.32491      6.39351      4.17122        -0.077620     -0.062732      0.064453
Fe	      8.38170      8.50592      8.32375         0.050786      0.154312     -0.246376
Fe	      6.37533      6.37752      8.25044        -0.075987     -0.161350     -0.214007
Co	      8.37926      4.26823      8.15235        -0.059815     -0.067141      0.119432
Cu	      6.28469      4.37167     10.37961        -0.010416     -0.029682      0.100261
O	      2.06758      2.05931      2.15117         0.000720      0.300623     -0.033760
O	      4.26754      4.25578      2.04697        -0.122288      0.021348     -0.038360
O	      4.10081      2.19039      4.06087         0.054354     -0.018228      0.103952
O	      6.32231      4.36159      4.02858         0.013181      0.009420      0.197198
O	      6.31580      2.09136      6.37238        -0.010235     -0.020036     -0.365003
O	      8.42803      4.25204      6.23713        -0.025177      0.017754      0.442629
O	      1.97288      4.15710      4.04809         0.176596      0.040976     -0.353902
O	      4.24541      6.34664      4.07546         0.043396     -0.064962      0.035164
O	      4.17594      4.51002      6.29132        -0.060164     -0.063913      0.002127
O	      6.20593      6.38818      6.20762         0.018019      0.050121     -0.083723
O	      6.22202      4.15886      8.14238         0.179276     -0.053411     -0.265023
O	      8.44255      6.49096      8.19456         0.006985     -0.274950     -0.069893
O	      2.19283      6.37209      6.24395        -0.013190     -0.068665     -0.045065
O	      4.20356      8.27373      6.30468        -0.013260     -0.016826      0.153776
O	      4.18690      6.43176      8.16965         0.001466     -0.012496      0.061433
O	      6.26503      8.47565      8.27405         0.000496     -0.045037      0.025389
O	      6.32322      6.36185     10.12876         0.003955      0.012048      0.166021
O	      8.49869      8.56124     10.19315        -0.066568      0.019006      0.245307
