# total energy = -230.87317515 eV
 
CRYSTAL
PRIMVEC
-0.004257 6.226420 6.264094 
6.344830 -0.002165 6.261759 
4.232278 4.151773 -0.003864 
PRIMCOORD
36 1
Li	      4.21656     10.23645      6.26536        -0.013740     -0.039988     -0.028002
Li	      2.19441      8.33711      6.28809         0.022993     -0.026076     -0.026536
Li	      4.19322      8.31281      8.26649         0.002839      0.043458     -0.003016
Li	      6.36734      2.15920      8.34924        -0.018301     -0.003536     -0.005975
Li	      2.07005      2.11971      4.16759        -0.030218      0.016740      0.014417
Li	      6.37295      4.15923      6.33611        -0.008302      0.008451      0.016392
Li	      4.23917      8.27143      4.19660        -0.000626     -0.002317     -0.029587
Li	      6.24039      8.30753      6.25678        -0.000786     -0.030722     -0.017439
Li	      4.28189      4.11859      8.35544         0.017907     -0.060820      0.058006
V	      2.09483      0.06685      2.01498        -0.085009     -0.023613      0.018950
V	      6.37807      2.06275      4.25317         0.108241     -0.079835      0.069851
V	      4.17028      4.17181      4.19965        -0.002763     -0.162555     -0.227849
Cr	      8.45372      4.14444      4.20659         0.045359     -0.058095      0.003847
Cr	      2.09576      4.07252      2.04740         0.097478      0.021789      0.017699
Fe	      4.25790      6.39786      6.24283         0.136940     -0.212094      0.068794
Fe	      6.35477      6.17605      8.29742         0.009790      0.120762      0.008202
Co	      8.42705      6.22223      6.27825         0.092197     -0.088993     -0.190064
Co	      2.11577      6.25475      4.23564        -0.001422     -0.061073     -0.025772
O	      2.08054      2.04819      2.08066         0.031167      0.061291     -0.031173
O	      4.20618      4.15364      2.25241        -0.013575     -0.004264     -0.033014
O	      4.31388      2.07153      4.16236        -0.123839      0.003977      0.320855
O	      6.36654      4.09187      4.07693         0.033141      0.077485      0.064304
O	      6.29783      2.08341      6.04302         0.080599     -0.022246      0.116055
O	      8.46781      4.18179      6.24579        -0.033706      0.580782     -0.005118
O	      2.24601      4.15005      4.06965        -0.075863      0.008710      0.017014
O	      4.21810      6.11808      4.24455        -0.004621      0.075143     -0.014409
O	      4.25555      4.14189      6.04438        -0.001522     -0.390913      0.270971
O	      6.28470      6.24990      6.35018        -0.162101     -0.028638     -0.108366
O	      6.44856      4.19675      8.37176        -0.043280     -0.123658      0.003354
O	      8.37612      6.13180      8.39186         0.103699      0.088935     -0.316799
O	      2.20940      6.18900      6.32177        -0.016024     -0.018225     -0.093666
O	      4.25628      8.25282      6.21806        -0.053831      0.232958      0.029319
O	      4.24227      6.20549      8.38716        -0.019798      0.007448      0.048470
O	      6.35167      8.33234      8.52279        -0.030115     -0.022005     -0.056410
O	      6.24802      6.30098     10.37471        -0.042344      0.000899      0.058453
O	      8.34422      8.35787     10.45468        -0.000566      0.110837      0.008243
