# total energy = -226.38092703 eV
 
CRYSTAL
PRIMVEC
0.023234 6.212011 6.348902 
6.219031 0.028229 6.343596 
4.161386 4.153442 0.003364 
PRIMCOORD
36 1
Li	      4.18931      4.12395      0.10712        -0.034235      0.017449     -0.022705
Li	      2.07937      2.08244      0.06328         0.000503      0.010418     -0.008828
Li	      1.99367      0.04658      2.07123         0.050397     -0.005946     -0.052921
Li	      6.23521      2.11370      4.27964         0.003116     -0.022003      0.058757
Li	      2.16201      4.10282      2.06501         0.030497      0.035993     -0.071373
Li	      4.20267      4.12920      4.09773         0.023246     -0.029578     -0.054697
Li	      6.26570      4.12799      6.38079         0.043626      0.053218      0.036204
Li	      6.19347      8.32982      6.36916         0.036616      0.017889     -0.019744
Li	      6.24783      6.19395      8.47251         0.000726     -0.083014      0.020766
V	      2.10026      2.08943      4.18253         0.041733      0.111980      0.123504
V	      4.17634      2.09566      6.34479        -0.095439     -0.078970     -0.022537
V	      8.20329      8.34933      8.45520         0.148751     -0.003602     -0.017510
Cr	      0.02589      2.01641      2.06519        -0.059917      0.028594      0.095693
Cr	      4.19274      6.23479      6.35593        -0.046127     -0.135417      0.018914
Fe	      8.36120      4.15627      4.31922         0.058492     -0.020142     -0.097564
Fe	      1.97587      6.12575      4.31304         0.092348      0.015779     -0.145025
Ni	      4.22718      8.39335      8.38757         0.048386     -0.029953      0.176910
Ni	      4.14936      8.29712      4.28196         0.013143     -0.006308      0.006717
O	      2.03046      2.11998      2.22695         0.034051     -0.022679     -0.149437
O	      4.19041      4.19301      2.10931         0.018575      0.081236      0.013220
O	      4.11484      2.07446      4.20359         0.014656      0.045492      0.029716
O	      6.34394      4.39166      4.21967        -0.150406     -0.150461     -0.076217
O	      6.12141      2.11157      6.44856         0.088413      0.053639     -0.006579
O	      8.29489      4.24925      6.24303        -0.015398      0.096456      0.106866
O	      2.05892      4.06766      4.21163         0.095268     -0.072017     -0.044909
O	      4.19434      6.20465      4.25408        -0.002045     -0.094557     -0.021023
O	      4.16159      4.15338      6.48327         0.007854      0.071978      0.039831
O	      6.25988      6.25492      6.20948        -0.047184      0.038448     -0.038309
O	      6.02277      4.07838      8.53696         0.033064     -0.023742     -0.066588
O	      8.34328      6.29270      8.50610         0.002310     -0.001509      0.056290
O	      2.20277      6.20904      6.19308         0.020004      0.030484      0.211396
O	      4.17781      8.18569      6.37973         0.003698      0.071244     -0.130685
O	      4.20364      6.18989      8.40494        -0.017724     -0.017054      0.033311
O	      6.39477      8.32219      8.49170        -0.162331     -0.060769      0.035778
O	      6.24693      6.20806     10.56552        -0.121866      0.147153     -0.033895
O	      8.29882      8.33923     10.49907        -0.156800     -0.069730      0.016672
