# total energy = -230.33507141 eV
 
CRYSTAL
PRIMVEC
0.035954 6.362823 6.214769 
6.350586 0.041843 6.210553 
4.253012 4.258315 0.007934 
PRIMCOORD
36 1
Li	      8.50622      8.57416     12.38143         0.028523     -0.052779      0.019583
Li	      4.29091      8.43755      8.29720        -0.031659     -0.009879      0.013015
Li	      8.52873     10.61160     10.34453         0.020357     -0.034199     -0.021450
Li	      6.36729      2.23996      8.25424         0.036597      0.015831     -0.007476
Li	      6.37986      6.36243      4.20021         0.036784     -0.057024     -0.027944
Li	      6.40512      4.37297      6.26837        -0.027016      0.138042     -0.037121
Li	      6.32888      4.30970     10.31440        -0.031239      0.071220      0.021814
Li	      4.39265      6.38526      6.23904         0.111471     -0.016894      0.006631
Li	      6.36132      6.33287      8.25880         0.005207     -0.064298     -0.022496
V	      4.23060     10.55048      6.22722        -0.103668     -0.146969     -0.075050
V	      2.18946      0.12969      2.05599         0.043418      0.231061      0.140940
V	      4.26228      4.30161      4.11112         0.183246     -0.286568      0.015639
Cr	      8.46200      6.38292      6.26940         0.007045     -0.030789     -0.162270
Cr	      8.50222      6.41261     10.32586        -0.151153      0.171965      0.006558
Fe	      6.41266      8.51914     10.35751        -0.081220      0.171770     -0.016865
Fe	      6.34862      8.39733      6.21637        -0.037434      0.137675     -0.005188
Fe	      4.40629      4.34013      8.29177        -0.119496      0.084187      0.064914
Cu	      8.33034      4.20805      8.27048        -0.002450     -0.080388      0.001783
O	      2.15152      1.91479      2.04627        -0.000374     -0.184251     -0.012895
O	      4.36273      4.22150      2.11837         0.080934      0.029817     -0.089733
O	      4.25024      2.34753      4.23010        -0.278256      0.064715      0.071549
O	      6.25167      4.28845      4.05831         0.058692      0.222992      0.038459
O	      6.24766      1.92566      6.26096         0.071006      0.044771     -0.037945
O	      8.52873      4.34384      6.30267         0.026181      0.027970     -0.142579
O	      2.20447      4.32066      4.01554         0.028716      0.068990      0.128513
O	      4.16667      6.16126      4.20080        -0.014853     -0.056203     -0.007545
O	      4.29426      4.16520      6.17827         0.035452     -0.006044     -0.007269
O	      6.47764      6.42724      6.20934        -0.098815     -0.058181      0.030710
O	      6.33487      4.27829      8.29931        -0.023438     -0.021049     -0.032508
O	      8.48404      6.57430      8.30516         0.032698      0.115645      0.036777
O	      2.02520      6.35002      6.18935        -0.023537     -0.079917      0.023525
O	      4.23850      8.72754      6.22722        -0.047196      0.072640      0.017024
O	      4.19629      6.34268      8.28312         0.088474      0.052702     -0.037257
O	      6.49135      8.76021      8.27615        -0.020303     -0.186942      0.046754
O	      6.47924      6.42576     10.45465        -0.086473     -0.276675      0.000502
O	      8.52101      8.42875     10.31368         0.283779     -0.072943      0.058902
