# total energy = -229.14938568 eV
 
CRYSTAL
PRIMVEC
0.018932 6.157620 6.284864 
6.299445 0.001353 6.302366 
4.209634 4.127278 -0.009061 
PRIMCOORD
36 1
Li	     10.42328      4.18221      6.40032        -0.051816      0.030427     -0.020400
Li	      6.21032      4.18186      2.06143        -0.045980      0.007463      0.022241
Li	      8.40826      4.15339      4.29217        -0.003494     -0.050996      0.022965
Li	      4.14653      6.01824      2.06288        -0.021572      0.015271     -0.008689
Li	      8.52389      4.18719      8.28558        -0.027052     -0.003908      0.031866
Li	      4.19613      4.15316      4.08766         0.006869      0.029537     -0.032038
Li	      8.47556      6.06698      6.34446         0.019670     -0.014155      0.043560
Li	      2.10490      6.13321      4.16176        -0.057533      0.044964     -0.040857
Li	      4.19770      6.16384      6.32061         0.025641     -0.026608      0.001533
V	      6.31131      6.11671      4.20291         0.091040     -0.102835     -0.125275
V	      0.02851      4.13597      4.21886         0.073844      0.068000     -0.110954
V	      4.19983      4.12724      8.38274         0.360387     -0.026505      0.385550
Cr	      2.06977      2.04593      0.02514        -0.151907      0.137019     -0.041314
Cr	      6.25577      2.07073      4.22869        -0.094747     -0.030336      0.248953
Fe	      4.15563      2.17765      2.07031        -0.067170     -0.215869      0.085980
Fe	      2.23404      4.26971      6.26382        -0.057674     -0.203129     -0.327256
Fe	      6.34863      6.12672      8.33760         0.126624     -0.006555      0.114664
Ni	      6.34196      4.09192      6.30487        -0.127186     -0.029666      0.059299
O	      2.18099      2.01020      2.12448        -0.022922     -0.003254     -0.011808
O	      4.20558      4.04290      2.09139         0.043803      0.048202     -0.026465
O	      4.13091      2.05022      4.13643         0.038573      0.003306     -0.038981
O	      6.27913      4.13070      4.23783         0.003868      0.120630     -0.010956
O	      6.35856      2.04903      6.19138         0.071759     -0.065402     -0.088841
O	      8.35395      4.01202      6.31761         0.048091     -0.141600     -0.019931
O	      2.09003      4.02773      4.29165         0.137430     -0.018685      0.062161
O	      4.46153      6.25412      4.14290        -0.022451      0.002338      0.046167
O	      4.20164      4.13156      6.42382        -0.204133      0.021976     -0.350209
O	      6.35432      6.21137      6.21208        -0.008870      0.193342      0.012106
O	      6.26882      4.13868      8.46359         0.031439      0.041064      0.205482
O	      8.33407      6.28425      8.40016        -0.105904     -0.331712     -0.022018
O	      2.14513      6.15062      6.25634         0.021348      0.079058     -0.000749
O	      4.17903      8.22213      6.22972         0.136430     -0.000764      0.038039
O	      4.33715      6.14497      8.36721         0.089804      0.406249     -0.069496
O	      6.28697      8.20591      8.40397        -0.084726      0.010475     -0.129960
O	      6.30653      6.18225     10.38543        -0.012787      0.004352      0.087293
O	      8.35606      8.21793     10.50871        -0.158697      0.008307      0.008339
