# total energy = -217.49042794 eV
 
CRYSTAL
PRIMVEC
0.002764 6.222293 6.238266 
6.172089 0.008974 6.231805 
4.134877 4.163538 -0.013699 
PRIMCOORD
36 1
Li	      0.11488      6.24894      6.15232        -0.056989     -0.026751      0.036346
Li	      2.03547      6.27233      8.19093        -0.051913      0.010744      0.039190
Li	      6.24159      8.16568     10.50856         0.014243     -0.048019     -0.038142
Li	      6.18770      2.04490      8.22014         0.013683     -0.013290      0.055730
Li	      6.18702      4.05407      6.23330         0.034096      0.020982      0.029194
Li	      8.13696      6.28896     10.51396        -0.007970     -0.022615     -0.040131
Li	      1.97870      4.29456      6.22109        -0.048496      0.052861     -0.045958
Li	      3.99097      6.29542      6.25211         0.025957     -0.035668      0.003331
Li	      6.18676      6.22052      8.38051        -0.016479     -0.012946      0.000924
V	      8.16868      4.20836      8.25044         0.158488      0.026050      0.128456
V	      6.14286      6.21271      4.26950        -0.165826      0.323702     -0.162503
V	      8.07042      8.31019      8.23143        -0.153927     -0.003559      0.021197
Cr	      4.15827      6.19839     10.38645         0.056467     -0.091543     -0.011153
Cr	      4.14004      4.17927      4.19584        -0.202897      0.101108     -0.078802
Ni	      2.03426      8.22396      6.26098        -0.026065      0.142959     -0.023134
Ni	      4.17316      8.28002      8.23802         0.106669     -0.026369     -0.014770
Ni	      4.25108      2.07174      6.22637         0.002545     -0.028458      0.009463
Ni	      4.13294      8.34016      4.22311         0.081379     -0.134342      0.003693
O	      2.04043      6.33707      6.24971        -0.016100     -0.167149      0.004758
O	      2.10338      2.20542      2.18798        -0.068214     -0.039724      0.042528
O	      3.94519      4.12863      2.20827         0.038545      0.108078      0.010249
O	      4.09743      2.07480      4.11638         0.033527     -0.039388      0.007082
O	      6.16072      4.28943      4.08775         0.084710     -0.068086      0.051009
O	      6.26872      2.08145      6.22509         0.007774     -0.011506      0.013766
O	      8.23170      4.11150      6.27359        -0.004718     -0.040609     -0.091029
O	      2.09729      4.11760      4.09197         0.197546     -0.038893      0.030236
O	      4.22796      6.17196      4.15718         0.137170     -0.164622      0.036450
O	      4.18411      4.11902      6.27534         0.004543      0.132486     -0.026750
O	      6.30052      6.29624      6.02324        -0.032511     -0.037405      0.174833
O	      6.32324      4.17237      8.35563        -0.073795     -0.003748     -0.122178
O	      8.26832      6.27161      8.22914        -0.008592      0.019419      0.102789
O	      3.98775      8.27155      6.25612         0.073569      0.042028     -0.044761
O	      4.15673      6.10453      8.39160        -0.019297     -0.019984     -0.016601
O	      6.30175      8.29877      8.24779         0.114942     -0.023373     -0.027186
O	      6.08509      6.19239     10.38919        -0.084164      0.123776     -0.025112
O	      8.26903      8.37356     10.22901        -0.147899     -0.006143     -0.033013
