# total energy = -216.07046010 eV
 
CRYSTAL
PRIMVEC
0.018446 6.150475 6.457894 
6.167021 0.007446 6.468829 
4.095818 4.091983 0.020308 
PRIMCOORD
36 1
Li	      4.21236     10.22539      6.58124        -0.010900      0.029726      0.018458
Li	      1.97681      0.05495      2.04604        -0.009506     -0.008274     -0.031000
Li	      2.12835      4.05758      2.40306        -0.003727      0.040894      0.086963
Li	      6.14169      6.15334      4.46897        -0.032152      0.033735      0.074408
Li	      4.03119      4.17900      4.26581        -0.017710      0.032532     -0.022404
Li	      6.18552      4.12882      6.35582        -0.026504      0.008071     -0.028771
Li	      2.12212      6.06811      4.49585         0.043039     -0.047383     -0.011838
Li	      2.06810      4.13680      6.38872         0.004782     -0.000795     -0.047652
Li	      4.00510      6.17949      6.36235         0.011720     -0.035059     -0.049394
Ti	      4.02996      4.14142      8.42761        -0.187853     -0.120677     -0.412137
Mn	      8.16378      4.07671      4.32859        -0.265606      0.254540     -0.031562
Mn	      4.14676      6.09041      2.22302        -0.041219     -0.005694      0.038058
Mn	      8.22545      6.08763      6.47296        -0.034388      0.131924      0.014029
Fe	      4.25320      8.15882      4.44311        -0.119251      0.022400     -0.036759
Co	      8.18252      2.02794      6.48553        -0.026728     -0.046737      0.031959
Cu	      6.17074      8.18057     10.76716        -0.155829      0.046985      0.046905
Ni	      4.09021      2.11665      2.09365        -0.048699      0.068931     -0.027109
Ni	      6.21081      6.09155      8.58606         0.107882     -0.068285     -0.090783
O	      1.97893      2.09676      1.93977         0.066652     -0.011074      0.034864
O	      4.07533      4.20633      2.22881         0.044775     -0.149990     -0.085539
O	      4.14579      1.91401      4.22953        -0.074271     -0.055382     -0.107466
O	      6.28428      3.99214      4.31898         0.139689      0.136582      0.012151
O	      6.13819      2.07089      6.70729        -0.028369      0.008149     -0.078209
O	      8.23082      4.10198      6.22929         0.044537     -0.057268     -0.011655
O	      2.00153      4.10807      4.39121         0.166727      0.019886     -0.023859
O	      4.15526      6.18926      4.15475         0.002216     -0.067235      0.186250
O	      4.15529      4.07945      6.58929         0.012297     -0.018982      0.391488
O	      6.35469      6.09708      6.56134         0.000671     -0.037981     -0.130474
O	      6.05124      4.02450      8.75977         0.007536      0.029852      0.084599
O	      8.30681      6.25240      8.67137        -0.033292      0.018194      0.072522
O	      2.05944      6.31943      6.45084        -0.031084      0.081283     -0.008561
O	      3.95986      8.19361      6.45393         0.038302      0.049839      0.045932
O	      4.14590      6.07092      8.75105        -0.141059     -0.082105      0.009459
O	      6.22605      8.15402      8.52266         0.246215      0.145580     -0.051935
O	      6.05081      6.15133     10.65173         0.073609     -0.193660      0.147866
O	      8.18951      8.29353     10.87435         0.277498     -0.152526     -0.008806
