# total energy = -92.18793388 eV
 
CRYSTAL
PRIMVEC
2.105857 4.254373 2.105506 
4.302513 -4.313468 0.027698 
4.274645 -0.000142 -4.273632 
PRIMCOORD
16 1
Li	      2.27893     -2.15548      0.03861         0.217445     -0.530042     -0.103487
Li	      4.39951      0.02946      0.03488         0.483023      0.006633      0.289949
Li	      4.45411     -2.16066     -2.18864         0.205552      0.106355      0.221174
Li	      6.56406     -0.09240     -2.20313         0.038844     -0.324085      0.328649
Mn	      0.30859     -0.00197     -0.05354        -5.182942      0.135613      0.034201
Mn	      2.32478      2.06118     -0.02690        -0.483160      2.219462     -0.908586
Ni	      2.40673     -0.00219     -2.15152        -0.822011     -0.083124     -1.066803
Ni	      4.50123      2.06097     -2.20288        -0.726802      0.918325      0.344740
O	      6.59950     -0.18512      0.10507         0.358833     -0.571196     -0.208082
O	      6.62764     -2.24849     -2.02375         0.149733      0.141865      0.949937
O	      4.22020      2.18694     -0.02832         0.217778     -0.657965     -0.330850
O	      4.39029     -0.00431     -2.36648         1.044576     -0.179518      0.163805
O	      8.96723     -0.05787     -2.19384         0.070915     -0.457472      0.266766
O	      4.52415     -2.37603      0.01122         1.146649      0.184875     -0.243501
O	      6.58838      2.31425     -2.32671         0.190984     -0.875198      0.115659
O	      2.09128      0.12358      0.00037         3.090582     -0.034528      0.146430
