# total energy = -215.75224787 eV
 
CRYSTAL
PRIMVEC
0.030995 6.258274 6.328345 
6.252683 0.028652 6.331118 
4.189993 4.196121 -0.002954 
PRIMCOORD
36 1
Li	      6.29657      6.29024     12.57304        -0.069304      0.075278     -0.041957
Li	      8.36473      8.38270     12.58438         0.034151      0.026635     -0.008331
Li	      4.29915      8.31271      8.32556         0.043141      0.002366     -0.004480
Li	      6.37226      8.30287     10.49714         0.003544      0.004783     -0.064330
Li	      8.42776      6.27926      6.44687        -0.017340      0.047673     -0.046479
Li	      8.26785      6.34139     10.52566        -0.034295     -0.030540      0.069948
Li	      6.22083      8.39135      6.43483         0.086453     -0.025498     -0.028440
Li	      8.31931      8.30251      8.50494        -0.049287      0.052815     -0.051129
Li	      6.33874      6.40979      8.52040        -0.057394      0.101664      0.010032
Ti	      2.12896      2.17760      4.17710         0.191071      0.511207      0.260769
Mn	      4.26265      6.23799     10.52469         0.333572      0.224769      0.141645
Mn	      4.20789      4.14843      4.22628        -0.183132     -0.237039      0.293327
Mn	      4.17781      6.30613      6.37545        -0.023010     -0.331816     -0.058259
Fe	      6.31670     10.29289      8.35022        -0.025137      0.027094     -0.103715
Co	      6.29934      4.16767      6.34592         0.171458     -0.996385      0.291590
Cu	      6.20574      2.15736      8.39903        -0.061097     -0.178705      0.007284
Cu	      8.36228      4.27294      8.36830         0.054805      0.002040     -0.096689
Cu	     10.44175      8.44560     10.57998         0.061208      0.118656      0.082542
O	      8.44483      6.22018      8.46644        -0.085215     -0.031401      0.006009
O	      6.12608      6.38665     10.59191         0.072720     -0.108999     -0.058461
O	      1.99990      2.14383      2.24102         0.050659     -0.083773      0.009594
O	      4.20512      4.25676      2.22104         0.022979     -0.099227     -0.123434
O	      4.04763      2.13732      4.21983        -0.265099     -0.203511     -0.005236
O	      6.40539      4.28945      4.11778        -0.049137     -0.000045      0.140533
O	      6.26133      2.31643      6.38114        -0.073635      0.038931     -0.037629
O	      8.21910      4.23503      6.14542         0.952829      0.222404     -0.000146
O	      2.04684      4.04632      4.37031        -0.086508     -0.251683     -0.127030
O	      4.25272      6.08576      4.22774         0.014334      0.287007      0.050950
O	      4.31935      4.26884      6.20870        -0.806629      0.343467     -0.049142
O	      6.16256      6.13072      6.22301        -0.093775      0.378226     -0.203271
O	      6.35617      4.15102      8.52198         0.001271      0.211401     -0.119900
O	      2.23591      6.27723      6.40531        -0.081446      0.067563     -0.065561
O	      4.19992      8.19778      6.25050        -0.020506      0.032926     -0.021663
O	      4.14011      6.29543      8.49535         0.049477      0.056247     -0.118038
O	      6.28244      8.43655      8.42764        -0.009330     -0.131353      0.067562
O	      8.45641      8.55897     10.51914        -0.052395     -0.123178      0.001536
