# total energy = -216.24493081 eV
 
CRYSTAL
PRIMVEC
0.020306 6.208290 6.305339 
6.124130 0.038916 6.286558 
4.100920 4.144426 0.007834 
PRIMCOORD
36 1
Li	     10.08594      4.15324      6.30093         0.010429     -0.010712     -0.017222
Li	      8.20611      2.27327      6.24752         0.004253     -0.001290     -0.006830
Li	      4.08251      8.30379      8.33239        -0.010659     -0.008596     -0.011641
Li	      8.18312      4.19168      8.17286         0.026693      0.000786     -0.106193
Li	      4.08843      4.15460      4.29793        -0.004842      0.005284      0.022896
Li	      8.21418      6.17602      6.29491         0.013351      0.009294      0.002310
Li	      6.19378      4.08896      6.36597        -0.012674     -0.034480     -0.018093
Li	     10.21810      8.36499     10.52634         0.002975      0.024092      0.037635
Li	      4.17106      4.14918      8.33639        -0.003527      0.002652     -0.017553
Ti	      6.13784     10.31817      8.39834        -0.107864     -0.126523     -0.037353
Mn	      6.12436      2.17874      8.29438        -0.007780     -0.047216     -0.158031
Mn	      2.08259      2.11237      4.20012         0.027470      0.053448      0.034279
Mn	      6.16285      8.28654      6.31821        -0.019789      0.161137      0.008100
Fe	      8.17135      6.33800     10.48206         0.025167     -0.124440      0.197400
Co	      8.18182      4.12958      4.24189         0.092174     -0.016074      0.074215
Ni	      6.07358      2.08944      4.34735        -0.077417      0.003045     -0.014696
Ni	      4.13414      6.23020      6.32322        -0.073965     -0.003866     -0.026399
Ni	      6.15451      6.15392      8.39189        -0.010519      0.008016     -0.014120
O	      1.96570      1.99611      2.09372        -0.008078     -0.049162      0.060122
O	      4.21535      4.27419      2.11165         0.158476      0.026072      0.033841
O	      4.00075      1.96256      4.17005        -0.120296     -0.076685     -0.012958
O	      6.20401      4.11742      4.09701        -0.043882      0.074255     -0.103941
O	      6.10336      2.09951      6.42261        -0.007378      0.016482      0.242532
O	      8.16313      4.17931      6.09639        -0.018371      0.007281     -0.108835
O	      2.08087      4.21117      4.39986         0.012617      0.005082      0.028425
O	      4.18575      6.24320      4.11328         0.051818      0.013012     -0.078451
O	      3.96534      4.21915      6.30796         0.004895     -0.132315      0.011371
O	      6.15681      6.36520      6.33794         0.153294     -0.009077     -0.143745
O	      6.18336      4.07265      8.36911        -0.014921     -0.100032      0.028419
O	      8.28126      6.20976      8.52530         0.103862      0.021860     -0.104717
O	      2.07685      6.11843      6.33719        -0.083369     -0.066407      0.077677
O	      4.25160      8.24338      6.32842         0.029296      0.116334      0.007770
O	      4.04177      6.22074      8.48480        -0.169508     -0.011399      0.093637
O	      6.12815      8.36188      8.32752        -0.004301      0.208199     -0.047325
O	      6.12711      6.29552     10.41602        -0.059973     -0.125930      0.057625
O	      8.12242      8.29158     10.54967         0.142345      0.187873      0.009850
