# total energy = -219.18652065 eV
 
CRYSTAL
PRIMVEC
0.084487 6.131943 6.332681 
6.360501 0.041050 6.376682 
4.241096 4.117784 0.027276 
PRIMCOORD
36 1
Li	      6.33554      4.08561      2.21492         0.051315      0.012739     -0.052970
Li	      4.25146      2.12190      2.19385        -0.006723     -0.034059      0.019954
Li	      6.33843      2.23349      4.22532         0.050974     -0.033392      0.000827
Li	      4.29978      6.12169      2.14975         0.027480     -0.006640     -0.082381
Li	      4.38836      4.12497      4.21188         0.021837      0.020994      0.038474
Li	      6.30667      4.11789      6.25128        -0.038573      0.016055     -0.021205
Li	      2.25195      6.13375      4.27194         0.032628     -0.017750      0.046084
Li	      2.24585      4.14163      6.37319         0.067477      0.007843      0.030314
Li	      4.26997      4.11761      8.43365        -0.009554     -0.001124     -0.053039
Ti	      6.33665      6.32058      8.49644        -0.275832      0.615909     -0.402462
Mn	      8.42961      2.08640      6.36673         0.043710     -0.192503     -0.033814
Mn	      4.27721      2.11453      6.32656        -0.028237     -0.046197      0.024183
Mn	      4.29463      8.18737      4.23947         0.009178     -0.105216      0.077478
Fe	      2.22759      4.07923      2.17376        -0.126901      0.026938     -0.067036
Co	      8.45024      4.15071      4.28265        -0.086809     -0.091841     -0.033705
Co	      4.28031      6.07875      6.35829         0.088064      0.134401      0.068366
Cu	      4.41156     10.23264      6.43811         0.051547     -0.006379      0.090312
Cu	      6.39449      6.12793      4.23389        -0.033076      0.143529      0.018922
O	      6.53923      4.20618      4.22565         0.118318     -0.060297      0.021881
O	      2.10811      2.13175      1.86323         0.024257     -0.092236      0.100344
O	      4.13295      4.10086      2.14006         0.167562      0.047536      0.030371
O	      4.17358      1.97220      4.38092         0.034884     -0.077130     -0.086542
O	      6.48602      1.98363      6.32463         0.167850      0.127142     -0.016924
O	      8.37659      4.11935      6.28419        -0.083821     -0.067716     -0.119238
O	      2.00065      4.04480      4.18478        -0.041592      0.053757      0.061181
O	      4.36161      6.26540      4.27706        -0.132577      0.062683      0.413117
O	      4.29004      4.00891      6.31206        -0.018400      0.135487     -0.022577
O	      6.29579      6.14690      6.59970        -0.376038     -0.025330      0.208239
O	      6.46303      4.17702      8.69999        -0.024301      0.007373      0.022379
O	      8.41925      6.12149      8.35327        -0.094217      0.038233      0.084459
O	      2.31690      6.26681      6.31848         0.401866      0.031039     -0.064253
O	      4.20754      8.25925      6.21429        -0.045149     -0.096990     -0.040199
O	      4.40576      6.16636      8.61659         0.209183      0.009103     -0.118940
O	      6.43887      8.14861      8.56401        -0.050267     -0.601328      0.015275
O	      6.33008      6.06297     10.58271        -0.106525     -0.007590     -0.073532
O	      8.68485      8.30551     10.69841         0.010461      0.072956     -0.083343
