# total energy = -220.94029850 eV
 
CRYSTAL
PRIMVEC
0.033803 6.216396 6.336316 
6.242833 0.042273 6.328723 
4.168495 4.145391 0.020807 
PRIMCOORD
36 1
Li	      2.14833      8.28346      6.37723        -0.028624      0.020182      0.056333
Li	      4.19988      8.21858      8.43472        -0.066795      0.055209     -0.036367
Li	      4.20243      6.28043     10.45245         0.025038     -0.006584      0.059307
Li	      6.28225      6.21986      4.30352         0.031652      0.044832     -0.013278
Li	      8.28904      6.27988      6.40126         0.055590     -0.058790     -0.004270
Li	      2.11926      6.21631      4.23895        -0.038562     -0.071258      0.031337
Li	      6.22096      8.22199      6.39409        -0.015107      0.046721     -0.017335
Li	      4.29572      6.24768      6.41018         0.044338     -0.069326     -0.065266
Li	      6.16399      6.30687      8.29951         0.014275      0.016798      0.012422
Ti	      6.30343      8.27695     10.48798        -0.187409     -0.202402     -0.103991
Mn	      4.13014      4.16477      4.27884        -0.276263      0.028441      0.012624
Mn	      6.31095      4.24935      6.36351         0.137271      0.133566     -0.005858
Mn	      4.15493      8.24292      4.28015         0.200651      0.136387      0.110221
Fe	      2.23069      6.28840      8.39343        -0.403419     -0.128213     -0.507471
Co	      0.06317      6.18731      6.33115        -0.832774      0.058800      0.294693
Co	      4.18495      6.21540      2.14064         0.028659     -0.075799      0.002268
Co	      8.34367      4.22664      8.48069        -0.035689     -0.300817     -0.210727
Cu	      4.16796      4.14851      8.36120        -0.248630      0.053203     -0.086675
O	      1.97719      2.01861      2.13897         0.036576      0.616098      0.019439
O	      4.09825      4.28177      2.09679        -0.152698     -0.113265     -0.675356
O	      4.30263      2.22735      4.23957         0.168632     -0.006183     -0.007988
O	      6.24774      4.07997      4.17859         0.112986     -0.067540     -0.027777
O	      6.29105      2.20367      6.38130         0.052731     -0.449271     -0.096846
O	      8.36882      4.20107      6.56901         0.214492     -0.018732      0.046920
O	      2.03939      4.13526      4.07838        -0.068589      0.019753     -0.014086
O	      4.15400      6.09412      4.09132         0.018838      0.018935     -0.038630
O	      4.30043      4.20428      6.31352         0.139329      0.017643      0.183074
O	      6.29514      6.11922      6.34850        -0.014605     -0.141399      0.035670
O	      6.38220      4.05823      8.58740         0.609660      0.064858     -0.115892
O	      8.50550      6.31098      8.45290         0.217881     -0.420290      0.187526
O	      1.91734      6.17503      6.42395        -0.087058     -0.030188      0.126395
O	      4.16249      8.32849      6.20176         0.116436      0.747739     -0.017927
O	      4.12599      6.16034      8.41369         0.192884      0.052498     -0.000759
O	      6.18497      8.33688      8.57623        -0.123835     -0.019254      0.427352
O	      6.21727      6.37187     10.65776         0.186070      0.012589      0.529427
O	      8.33020      8.32797     10.52797        -0.023933      0.035062     -0.088506
