# total energy = -220.61136639 eV
 
CRYSTAL
PRIMVEC
0.015413 6.279693 6.261486 
6.207512 -0.007689 6.284221 
4.130699 4.194538 0.002200 
PRIMCOORD
36 1
Li	      4.13961     10.41700      6.28471        -0.056501      0.036150      0.030670
Li	      4.18556      6.22458     10.42718         0.010975     -0.010845      0.078315
Li	      4.09337      6.25562      2.16540         0.037833     -0.102698     -0.019728
Li	      8.20873      4.27541      8.41690        -0.046186     -0.012572     -0.062370
Li	      4.14853      4.20232      4.21269         0.012602     -0.012385      0.025404
Li	      6.17850      4.22590     10.44569        -0.049474      0.044476      0.030689
Li	      2.05596      4.21501      6.18399         0.083161      0.021330     -0.005372
Li	      4.11863      6.35237      6.21785        -0.017623      0.031812     -0.038465
Li	      4.24404      4.17419      8.39150        -0.008759      0.013455     -0.096028
Ti	      2.07666      6.21667      8.27501        -0.129482      0.070747     -0.299230
Mn	      6.24330      8.30643     10.46413        -0.063633      0.036045      0.056808
Mn	      8.29234      6.27271      6.32849        -0.086319     -0.033682     -0.002571
Mn	      6.18925      4.18806      6.31029         0.043344     -0.043291     -0.035822
Fe	      4.13814      8.36892      8.20793         0.037575      0.043750      0.217088
Co	      8.27138      2.12218      6.28162        -0.114178     -0.086213      0.022153
Co	      1.90906      2.32832      4.19356         0.005660      0.088511     -0.011064
Co	      6.20925      6.31246      8.31673        -0.066389     -0.024310     -0.059731
Ni	      2.12494      6.23246      4.16556         0.015066     -0.011418      0.066684
O	      2.11543      1.94931      2.17583        -0.095383      0.115671     -0.282249
O	      4.31320      4.07772      2.12965         0.106783      0.059374      0.023603
O	      4.19471      2.04492      4.33021        -0.026960     -0.008929     -0.063098
O	      6.24989      4.06261      4.17510         0.008870     -0.079451     -0.008550
O	      6.10179      2.00245      6.38314         0.118030     -0.102441      0.011296
O	      8.13629      4.25168      6.31623         0.144792      0.187959      0.001694
O	      2.12158      4.13771      4.16200        -0.014174     -0.078557     -0.026187
O	      4.20871      6.24886      4.19419         0.122492      0.018852     -0.036132
O	      4.28460      4.00456      6.29021        -0.041374      0.003483     -0.038566
O	      6.32628      6.35325      6.31326         0.068840      0.037684      0.029381
O	      6.18740      4.41863      8.27204        -0.011419     -0.004674      0.100745
O	      8.14391      6.29313      8.28012         0.034414      0.017981     -0.069962
O	      2.10002      6.29973      6.38128         0.022626     -0.116714      0.133365
O	      4.08050      8.43513      6.30857        -0.270247     -0.051695     -0.226516
O	      4.18019      6.37107      8.33398        -0.028450     -0.121978      0.018449
O	      6.19019      8.39607      8.29711         0.051892     -0.000672     -0.008012
O	      6.26794      6.35078     10.24326        -0.034957     -0.040595      0.010575
O	      8.17013      8.27710     10.50655         0.236554      0.115842      0.532735
