# total energy = -223.99456729 eV
 
CRYSTAL
PRIMVEC
0.046329 6.362491 6.275019 
6.272498 0.018019 6.304101 
4.174792 4.253875 0.019216 
PRIMCOORD
36 1
Li	      2.21639      8.45126      6.30792        -0.001155     -0.029317      0.021719
Li	      6.23530      4.29802      2.17227        -0.031747     -0.034923      0.061562
Li	      4.23288      8.48555      8.35328         0.032957     -0.005334     -0.026407
Li	      6.29297      6.32246      4.29469        -0.031218      0.011553      0.000991
Li	      4.22984      4.22589      4.30817         0.026756     -0.052215      0.060027
Li	      6.22088      4.39537      6.22046         0.026453     -0.022989     -0.043031
Li	      4.25231      8.43624      4.30210         0.000704     -0.001471     -0.026299
Li	      6.22043      8.45450      6.23665         0.040853      0.010070     -0.036647
Li	      4.31166      6.48183      6.20980        -0.037829      0.067685     -0.043580
Ti	      4.17786      4.42834      8.24622        -0.094718      0.125107     -0.291234
Mn	      4.23604     10.51706      6.32347         0.023368     -0.065682      0.098195
Mn	      4.21918      6.34340      2.14277        -0.064379     -0.003059      0.147263
Mn	      2.13468      6.37037      4.23536         0.206175     -0.036995     -0.137866
Fe	      2.07531      4.13661      2.13710        -0.028537      0.106570     -0.012837
Co	      4.13637      2.17368      6.22748         0.255544     -0.125262      0.247872
Co	      8.27335      4.28629      4.23635         0.004831      0.148737     -0.062428
Co	      6.26407      2.17439      4.21603        -0.208066      0.066036     -0.114609
Co	      6.27276      6.40790      8.24931        -0.080955      0.018646     -0.109807
O	      1.97039      2.19299      2.19737        -0.036978     -0.083912      0.016674
O	      4.12607      4.17138      1.96100         0.029112     -0.033202     -0.077432
O	      4.37060      2.08997      4.21334        -0.061441     -0.130164      0.117798
O	      6.29485      4.05494      4.26084         0.057226      0.006383      0.023126
O	      6.25436      1.94310      6.45096        -0.479011      0.082025     -0.068047
O	      8.50573      4.26445      6.37801        -0.038375      0.237217     -0.107787
O	      2.11968      4.45178      4.07531         0.001526      0.082099      0.100369
O	      4.05591      6.39241      4.12026        -0.128731     -0.001888      0.018966
O	      4.22571      4.23629      6.42210        -0.064548     -0.230222      0.159257
O	      6.32301      6.39370      6.27108         0.606347      0.069962     -0.060970
O	      6.26595      4.33241      8.40322        -0.058985      0.020851      0.006991
O	      8.46505      6.41692      8.51944        -0.007480      0.015401     -0.082490
O	      2.00951      6.35742      6.12991        -0.168010      0.020199      0.128538
O	      4.21067      8.66022      6.26529        -0.028247      0.128949     -0.019591
O	      4.17371      6.30037      8.38741         0.121816     -0.286946      0.071459
O	      6.46655      8.42980      8.41690         0.120864     -0.023515     -0.014312
O	      6.36927      6.51101     10.57789         0.087024     -0.000555      0.074347
O	      8.29536      8.41124     10.43601         0.008854     -0.049840     -0.019780
