# total energy = -218.81384097 eV
 
CRYSTAL
PRIMVEC
0.013210 6.229026 6.319641 
6.105038 0.006253 6.326578 
4.089100 4.175903 -0.014621 
PRIMCOORD
36 1
Li	      4.13791     10.30855      6.33268         0.064509      0.004720      0.004369
Li	      2.16802      8.26304      6.30300        -0.035599     -0.025924     -0.015423
Li	      4.09628      8.38201      8.10909         0.016893      0.002282      0.054879
Li	      6.14691      2.11794      4.28641        -0.033739      0.004838      0.028079
Li	      0.05492      1.98080      1.97570         0.013792     -0.024792     -0.065061
Li	      6.12090      4.06491      6.36927        -0.026267     -0.035976      0.000743
Li	      4.06536      8.39095      4.39248        -0.000627      0.031391     -0.025321
Li	      5.97211      8.40165      6.35963         0.031001      0.093180     -0.000678
Li	      4.00949      6.48326      6.30289        -0.043783      0.024853     -0.008235
Ti	      6.01785      6.29427      8.37307        -0.169248      0.016784     -0.132342
Mn	      4.14514      2.06486      6.34480         0.067761      0.006473     -0.013052
Mn	      2.06519      6.24796      4.36129         0.020298      0.032449      0.030367
Mn	      4.10444      4.15134      8.42217         0.045648     -0.041113     -0.028194
Fe	      2.18646      4.04421      2.01031        -0.137916     -0.013379     -0.145552
Fe	      6.02361      6.26870      4.24809         0.127693     -0.053115      0.142038
Co	      2.00511      6.26133      8.34877         0.120950     -0.050992     -0.160762
Cu	      4.11281      4.12954      4.26917         0.127561     -0.050562     -0.042087
Ni	      8.19469      4.15131      4.27458         0.092808     -0.108696      0.106255
O	      4.07132      8.35853      6.25239         0.049747      0.001613     -0.076251
O	      2.01290      2.07573      2.22230        -0.017305     -0.021785     -0.043802
O	      4.12729      4.13484      2.06461         0.083770     -0.007392     -0.089499
O	      3.98735      2.10606      4.43919         0.002387     -0.074730      0.006741
O	      6.14596      4.26248      4.00452        -0.204162     -0.036473     -0.037556
O	      5.96685      2.08291      6.30929        -0.019549     -0.015400     -0.043595
O	      8.13306      4.28415      6.33265         0.023041     -0.048650      0.017013
O	      2.07245      4.15168      4.07653        -0.092018      0.213557      0.134884
O	      4.04854      6.11233      4.27840        -0.255664      0.220647      0.073405
O	      4.09463      3.97030      6.49735         0.005257      0.031007      0.017803
O	      6.18146      6.25401      6.36587        -0.042536      0.014289      0.110685
O	      6.09268      4.32607      8.39899         0.127932      0.092382      0.016098
O	      8.10099      6.12422      8.30492        -0.010760     -0.015820      0.104589
O	      2.05690      6.25359      6.44925        -0.022238      0.038378      0.073559
O	      4.11086      6.33088      8.49315         0.173447      0.007123     -0.073641
O	      6.22823      8.32291      8.40930        -0.141427     -0.085603      0.020553
O	      6.21904      6.28583     10.33996         0.086391      0.012091     -0.007493
O	      8.19722      8.25636     10.37928        -0.028045     -0.137655      0.066486
