# total energy = -220.40732041 eV
 
CRYSTAL
PRIMVEC
0.018028 6.208656 6.452654 
6.298567 0.057913 6.413412 
4.211712 4.124841 0.025724 
PRIMCOORD
36 1
Li	      4.30944      8.21043      8.51771         0.032427      0.012437     -0.047981
Li	      4.35196      6.20262     10.63081         0.021556      0.030143     -0.064177
Li	      6.37886      8.20235     10.62986         0.036968      0.021052     -0.025677
Li	      2.11732      4.14441      2.19543         0.049502     -0.040481      0.001236
Li	      6.27952      4.29715     10.73823        -0.012995     -0.057950     -0.028392
Li	      8.30810      6.27658     10.76788         0.031834      0.017044      0.033214
Li	      6.29947      8.25872      6.50403         0.011806     -0.000095     -0.008678
Li	      4.19998      6.29507      6.54391        -0.016345     -0.037424      0.020334
Li	      6.29597      6.29771      8.69054         0.021444      0.003506      0.039778
Ti	     10.47387      6.30441      8.68359         0.069023     -0.053278      0.288057
Mn	      6.36752     10.30276      8.60811        -0.191610      0.184425      0.011117
Mn	      4.14651      4.10290      4.34517        -0.018526      0.040753     -0.094596
Mn	      6.34863      4.22184      6.45260        -0.046337     -0.004741     -0.006643
Fe	      6.34266      6.20040     12.63057         0.004857      0.078847      0.155379
Fe	      8.53475      8.29721     12.71339        -0.081969      0.050185      0.345649
Co	      4.20792      2.11088      6.42924        -0.009864     -0.028438     -0.067021
Cu	      2.10400      2.13293      4.30878        -0.094301      0.001176     -0.041295
Cu	      8.36716      8.33441      8.69488         0.104946     -0.086896     -0.014596
O	      8.40340      8.34043     10.87887        -0.032605      0.055469     -0.319621
O	      1.94560      1.98609      1.98528        -0.053933     -0.033634     -0.161921
O	      4.30988      4.17903      2.28037         0.052462      0.007571      0.010738
O	      4.20798      2.19840      4.48545         0.126809     -0.120670      0.083291
O	      6.13556      4.28783      4.41478         0.050476     -0.131935      0.134920
O	      6.21963      2.17877      6.52187         0.000246      0.014473      0.022132
O	      8.52306      4.24950      6.49228        -0.010863      0.029076      0.072684
O	      2.26516      4.03638      4.24129        -0.069806      0.116622     -0.031887
O	      4.14748      6.09042      4.17258        -0.131052      0.098176     -0.182079
O	      4.17085      4.05407      6.27294        -0.097082      0.027462      0.233845
O	      6.50042      6.11541      6.53536         0.028453      0.065434      0.151677
O	      6.27067      4.08935      8.51883         0.031021     -0.002608     -0.095122
O	      8.53597      6.29119      8.41513        -0.004014     -0.009558     -0.075275
O	      2.01061      6.27173      6.43946         0.055063     -0.084984      0.003746
O	      4.18512      8.31711      6.48075         0.084482     -0.105491      0.030559
O	      4.07631      6.19137      8.59715         0.091644      0.058753     -0.017812
O	      6.38251      8.40356      8.62989        -0.039337     -0.130172     -0.004929
O	      6.33100      6.25134     10.77711         0.005621      0.015750     -0.350653
