# total energy = -221.18571844 eV
 
CRYSTAL
PRIMVEC
0.043088 6.200238 6.308333 
6.281316 0.050641 6.301214 
4.218329 4.159364 0.003028 
PRIMCOORD
36 1
Li	      4.26059     10.32620      6.33805        -0.016797     -0.004023      0.042643
Li	      6.24617      4.17091      2.06262         0.001497      0.037737     -0.031782
Li	      4.30653      8.32361      8.41726         0.026848     -0.012249     -0.040141
Li	      4.28720      6.26623     10.49547        -0.040604      0.038772      0.023684
Li	      2.20251      4.18175      2.13836         0.010029     -0.019229     -0.034752
Li	      8.37943      6.21154      6.30423         0.007662     -0.044869     -0.001795
Li	      8.32721      6.22155     10.53681        -0.036643      0.027906      0.034133
Li	      2.08966      4.17935      6.25562        -0.029832      0.004686      0.020195
Li	      6.30611      6.25363      8.48350        -0.021404      0.031824     -0.007427
Ti	      8.30856      8.33687      8.41397        -0.288299      0.066003     -0.001587
Mn	      2.20120      8.28926      6.34548         0.051675      0.071202     -0.001297
Mn	      6.25261      8.23729     10.49676         0.269947     -0.167437     -0.044664
Mn	      4.22688      6.17856      2.15231         0.191429     -0.038670     -0.207091
Fe	      6.39859      4.23034      6.31473        -0.038009     -0.136060     -0.017853
Fe	      4.21664      6.26473      6.33665         0.021436      0.111567     -0.057094
Co	      2.15563      2.07522      4.16973        -0.349996      0.208795     -0.124125
Ni	      6.35898      4.28447     10.48945        -0.095012      0.092037      0.089249
Ni	      4.14399      4.12751      4.19335         0.060430      0.020110      0.113208
O	      1.97995      2.06337      2.21382        -0.095842     -0.029415      0.794645
O	      4.21385      4.31548      2.16060         0.006946      0.013466     -0.184609
O	      4.25691      2.08793      4.19499        -0.603754      0.020604      0.010072
O	      6.23081      4.10456      4.30691         0.149861      0.195029     -0.065824
O	      6.43793      2.13756      6.45024        -0.199033     -0.026113      0.146521
O	      8.33402      4.07054      6.34250         0.080623      0.134093     -0.008756
O	      2.10311      4.03621      4.21865         0.017127     -0.707225      0.001480
O	      4.26966      6.24610      4.14685         0.758576      0.096922     -0.078668
O	      4.28756      4.21980      6.35626        -0.008700     -0.092159      0.076699
O	      6.28385      6.19109      6.16642         0.007192      0.169999     -0.464396
O	      6.22809      4.08019      8.39991        -0.009070      0.050712      0.022488
O	      8.58941      6.36537      8.36703        -0.065093      0.016487      0.044105
O	      2.26119      6.36854      6.27820        -0.119581     -0.199043     -0.065616
O	      4.14556      8.27958      6.26591         0.183077      0.020242      0.013108
O	      4.28461      6.10902      8.28548         0.030091     -0.100285      0.191317
O	      6.45362      8.29030      8.34701         0.189903     -0.027294      0.023669
O	      6.31893      6.32708     10.50941         0.043044      0.226683     -0.023088
O	      8.33567      8.36212     10.38875        -0.089720     -0.050805     -0.186653
