# total energy = -92.22855245 eV
 
CRYSTAL
PRIMVEC
4.040256 0.000148 -0.000686 
-2.019273 4.286213 -6.125312 
-2.020457 4.280337 2.038305 
PRIMCOORD
16 1
Li	      2.01598      2.15005     -0.06977         0.007565      0.025190     -0.020962
Li	     -0.00278      4.27983     -0.00563        -0.001088     -0.000073     -0.001936
Li	     -0.00104      2.13221     -1.97979        -0.006389     -0.024388      0.020868
Li	     -0.00218      4.28412     -4.08721         0.000001      0.000360     -0.001705
Mn	     -2.02394      4.29109      1.98241         0.001327      0.027799     -0.054162
Mn	      2.01842      4.27265     -1.99345        -0.002546     -0.029632      0.054501
Ni	     -0.00180      6.46680     -2.00287        -0.003787      0.012721      0.037439
Ni	     -2.02297      6.38309     -4.13343         0.003314     -0.014457     -0.036900
O	     -2.02184      6.25266     -2.10790        -0.005551     -0.017342      0.090567
O	      2.01735      4.28165     -0.00596         0.000596      0.000777      0.000073
O	     -0.00289      6.59739     -4.02832         0.004990      0.016624     -0.088333
O	     -2.02316      8.44716     -4.10877         0.004739      0.117160      0.016384
O	      2.01795      4.28481     -4.08767         0.000531      0.000819     -0.000614
O	      2.01891      2.40207     -2.08469        -0.001750      0.034857      0.122181
O	     -0.00164      4.40273     -2.02765        -0.006123     -0.115026     -0.015364
O	     -0.00401      1.88151      0.03517         0.004171     -0.035389     -0.122036
