# total energy = -91.74683500 eV
 
CRYSTAL
PRIMVEC
2.116079 4.275026 2.115726 
4.323399 -4.334407 0.027832 
4.295395 -0.000143 -4.294378 
PRIMCOORD
16 1
Li	      2.31138     -2.15570      0.04926         0.244501     -0.600106     -0.112936
Li	      4.44233      0.02975      0.03522         0.558703      0.004515      0.331434
Li	      4.49746     -2.18169     -2.20994         0.226220      0.114458      0.249683
Li	      6.62794     -0.09330     -2.22457         0.047517     -0.364621      0.378430
Mn	      0.36370     -0.00227     -0.06450        -6.325960      0.118072      0.000488
Mn	      2.36839      2.06020     -0.02703        -0.523668      2.537905     -0.997576
Ni	      2.46142     -0.00250     -2.16205        -0.940890     -0.091281     -1.227114
Ni	      4.56603      2.05999     -2.22419        -0.814793      1.028970      0.355588
O	      6.66373     -0.18692      0.10609         0.429448     -0.592040     -0.225961
O	      6.69214     -2.27038     -2.04345         0.173953      0.136134      1.039617
O	      4.26128      2.20823     -0.02860         0.279634     -0.729075     -0.375070
O	      4.43302     -0.00436     -2.38951         1.203484     -0.182001      0.203326
O	      9.05450     -0.05843     -2.21519         0.013011     -0.524960      0.292510
O	      4.56818     -2.39915      0.01133         1.290091      0.208919     -0.252171
O	      6.65250      2.33678     -2.34936         0.199299     -1.019695      0.149547
O	      2.11163      0.12479      0.00037         3.939452     -0.045194      0.190206
