# total energy = -222.82933175 eV
 
CRYSTAL
PRIMVEC
0.010760 6.049785 6.283169 
6.411584 -0.019191 6.312378 
4.270176 4.049061 -0.008160 
PRIMCOORD
36 1
Li	      0.08439      6.02964      6.23106         0.067440     -0.011244      0.070249
Li	      2.14804      6.05491      8.29290        -0.031630      0.009463      0.023971
Li	      4.33752      5.99462     10.47244        -0.044459     -0.100788     -0.031095
Li	      2.13825      4.05988      2.11976         0.039781      0.004993      0.064856
Li	      6.45186      4.04125      6.26783        -0.038912     -0.024637     -0.086032
Li	      2.13020      5.99360      4.35194         0.018070     -0.045669      0.039763
Li	      2.12315      4.07950      6.28414         0.014330      0.006766     -0.008269
Li	      4.14979      6.11863      6.29465        -0.078978      0.052358      0.027950
Li	      6.38445      6.01095      8.31615        -0.004714     -0.018302     -0.104177
Ti	      6.43387      7.91924     10.40695         0.343535      0.144401     -0.172886
Mn	      2.19909      8.10017      6.29442        -0.011229     -0.045044     -0.005244
Mn	      4.25935      6.03675      2.11389         0.090785     -0.218227      0.022031
Mn	      8.54595      5.95755      6.29231         0.033813      0.053435      0.071440
Fe	      6.39825      6.05075      4.24825         0.091069      0.026083     -0.107635
Fe	      4.29145      4.15708      8.32856        -0.238262     -0.170840     -0.067830
Co	      4.30757      8.05240      8.29834         0.060750      0.034587      0.032310
Co	      4.26828      4.05961      4.23421         0.047609     -0.143933      0.046110
Cu	      0.05826      4.10506      4.26061        -0.023603      0.115523     -0.125115
O	      2.02595      2.03773      2.13638        -0.008761      0.031079     -0.008144
O	      4.25126      4.07656      2.26846        -0.015737      0.056545      0.349317
O	      4.29334      1.92537      4.26544        -0.024959      0.739942      0.031852
O	      6.18077      3.99901      4.20783         0.160867     -0.003223     -0.023104
O	      6.29895      1.98573      6.17870        -0.152098     -0.092129      0.024044
O	      8.51560      4.02852      6.30666         0.013369      0.104150     -0.048444
O	      2.39564      3.99920      4.23356        -0.074146     -0.020320     -0.009037
O	      4.41746      6.17046      4.28083        -0.160993     -0.882825     -0.014035
O	      4.28581      3.87365      6.27970         0.074229      0.016681     -0.124612
O	      6.64145      6.01146      6.22272         0.113079     -0.044789      0.104741
O	      6.29539      3.91964      8.54637         0.130800      0.120504      0.058699
O	      8.66598      6.08188      8.20925         0.001670      0.071895     -0.092475
O	      2.12752      6.25005      6.28692         0.012688     -0.003710      0.012049
O	      4.24607      8.13412      6.25043        -0.024696      0.048628     -0.083708
O	      4.30292      6.03233      8.33494         0.001645      0.092806      0.054070
O	      6.45225      8.06873      8.47945         0.006366     -0.099153      0.199763
O	      6.42625      6.05786     10.44531        -0.071717      0.247671     -0.027838
O	      8.32529      8.09321     10.45620        -0.317000     -0.052677     -0.093533
