# total energy = -222.88974127 eV
 
CRYSTAL
PRIMVEC
0.031458 6.064234 6.301456 
6.362859 0.003331 6.329752 
4.241848 4.062004 0.002080 
PRIMCOORD
36 1
Li	      8.46011      2.07227      6.31360         0.015046     -0.021308     -0.042587
Li	      4.18357      2.05644      2.09436        -0.033217      0.018565     -0.052575
Li	      2.12290      4.05149      2.24296         0.017632      0.007785     -0.036960
Li	      2.11629      2.16262      4.12207         0.010152     -0.047642     -0.012069
Li	      6.38883      4.05948      6.39277         0.003873      0.054476      0.026813
Li	      0.26841      4.04429      4.19504         0.072788      0.037875      0.032358
Li	      2.12113      5.96991      4.13860         0.018353      0.105088     -0.007207
Li	      2.15011      4.03249      6.09844        -0.050587      0.029457      0.010690
Li	      8.52547      8.09847      8.48091         0.004033     -0.016167      0.070875
Ti	      4.24601      6.12502      6.20627        -0.038782      0.351939     -0.136698
Mn	      6.33774      4.03977      2.11199        -0.002022      0.018614     -0.172636
Mn	      8.44318      4.02479      4.25282         0.000486     -0.167859      0.053672
Mn	      6.42455      6.06140      8.46476         0.011399     -0.047698     -0.108163
Fe	      6.38770      2.13516      8.46436        -0.042080     -0.043541      0.029986
Fe	      4.28408      2.08313      6.34068        -0.105755     -0.076682      0.055457
Co	      4.29106     10.03433      6.27218        -0.137710      0.164939      0.014638
Co	      6.36048      2.03469      4.22155         0.154762      0.052898     -0.025015
Ni	      4.15552      4.03070      4.19238         0.062916      0.002005     -0.015425
O	      1.99901      1.89417      2.12253         0.106262     -0.094571     -0.003575
O	      4.39681      4.10477      2.09055         0.017252     -0.043676     -0.185885
O	      4.35222      1.94410      4.28231         0.034421     -0.080369     -0.004167
O	      6.27838      3.97176      4.05858         0.044012     -0.088170      0.009481
O	      6.31853      1.99809      6.26089         0.026294     -0.507288     -0.037206
O	      8.52082      4.12077      6.22415         0.247624     -0.085324     -0.065949
O	      2.20439      4.03656      4.17640        -0.118989     -0.025289      0.005925
O	      4.23825      6.09557      4.29580         0.036388      0.083536      0.211468
O	      4.28257      4.08788      6.26921         0.010077      0.136813      0.087627
O	      6.30366      6.08276      6.50529         0.001562     -0.020177      0.017638
O	      6.39610      4.07575      8.46516         0.016304      0.133900     -0.001130
O	      8.63620      6.09656      8.32377        -0.067738      0.017986      0.009167
O	      2.24835      6.02574      6.48075        -0.054796     -0.072189      0.079676
O	      4.26434      8.00352      6.29935        -0.004724      0.104617     -0.030130
O	      4.11314      6.07245      8.42510        -0.063438      0.010981     -0.004948
O	      6.36554      8.09054      8.59940        -0.059275      0.044613      0.089424
O	      6.41928      6.14944     10.42911         0.018092      0.007900      0.139750
O	      8.29954      8.20253     10.55140        -0.150614      0.053962     -0.002322
