# total energy = -224.61794300 eV
 
CRYSTAL
PRIMVEC
-0.021926 6.231824 6.335052 
6.173008 0.002286 6.311900 
4.134458 4.157494 -0.017064 
PRIMCOORD
36 1
Li	      2.06867      8.29022      6.32434         0.039176     -0.012151     -0.007517
Li	      2.12019      6.19630      8.41926         0.044120      0.013031      0.027699
Li	      4.06178      6.24641     10.44183         0.026873      0.083173      0.018289
Li	      6.15845      8.32548     10.46741        -0.069143     -0.040644     -0.063433
Li	      6.19615      6.20002      4.18910         0.051634     -0.014608      0.008407
Li	      8.23454      6.27215     10.49876        -0.030204      0.007457     -0.011890
Li	      6.14274      8.31099      6.43641         0.004408     -0.075110      0.106381
Li	      4.09037      6.28867      6.41109        -0.023812      0.095681      0.034964
Li	      6.10739      6.30534      8.39132         0.029442      0.100868     -0.041336
Ti	      0.12685      6.16504      6.27641         0.294226     -0.104068     -0.313228
Mn	      0.04025      2.06444      2.11275        -0.123395      0.046288     -0.050217
Mn	      6.20634      4.23348      6.27334         0.012594      0.166734     -0.018334
Mn	      4.14306      8.27399      4.22566        -0.007387     -0.011142     -0.000991
Fe	      4.08756      4.08945      4.24248        -0.038667     -0.042680      0.016720
Fe	      8.09909      8.48218      8.46396         0.096417     -0.111638     -0.012900
Co	      4.05501      2.07704      6.25529         0.195820     -0.188562      0.208594
Co	      4.07931      8.23544      8.46459         0.099315     -0.254399      0.056869
Co	      8.21568      4.16078      8.40752        -0.128197     -0.011731     -0.039328
O	      1.97436      2.22104      2.10970        -0.184988     -0.021223     -0.023666
O	      4.00056      4.02735      2.11025        -0.126523      0.243792     -0.055948
O	      4.10878      2.14536      4.17698        -0.074448      0.097397      0.334599
O	      6.10068      4.14288      4.37836         0.014321     -0.028691      0.048098
O	      6.16214      2.06396      6.38831        -0.491257     -0.085068     -0.030541
O	      8.17405      4.12345      6.45119        -0.045825      0.072194      0.009249
O	      2.03501      4.18976      4.06290        -0.076376     -0.007135     -0.067147
O	      4.13583      6.28219      4.08607        -0.049713     -0.053091     -0.052568
O	      4.23519      4.20725      6.31339         0.152050     -0.083942      0.042132
O	      6.19645      6.09638      6.28564         0.564565     -0.050436     -0.048764
O	      6.23248      4.22959      8.27939         0.011216     -0.005662     -0.057812
O	      8.35441      6.14068      8.33671         0.083586      0.018590     -0.198309
O	      1.91896      6.25026      6.36860        -0.458082     -0.028355      0.013484
O	      4.12141      8.39944      6.40604         0.012537      0.219307     -0.167216
O	      4.08006      6.24628      8.44640         0.030085      0.065689     -0.079829
O	      6.25073      8.27867      8.42926        -0.051926      0.073198      0.019295
O	      6.13685      6.11546     10.71112         0.066038     -0.079947      0.358088
O	      8.38234      8.28589     10.39798         0.151517      0.006884      0.038109
