# total energy = -216.42405494 eV
 
CRYSTAL
PRIMVEC
-0.008910 6.315771 6.118287 
6.361256 -0.003580 6.113144 
4.241981 4.208389 -0.003882 
PRIMCOORD
36 1
Li	      0.08751      6.26350      6.15508         0.003490      0.066415      0.044775
Li	      2.20165      6.19454      8.03778         0.045056     -0.020042      0.038636
Li	      4.31430      8.35400      8.08354        -0.020380     -0.034336      0.144482
Li	      6.37365      8.37702     10.10753        -0.045808      0.043473     -0.059740
Li	      6.34150      2.11643      8.12172        -0.011274      0.008932     -0.016506
Li	      4.26447      2.15745      6.17785         0.032694      0.015111      0.059568
Li	      4.23197      6.35202      6.18863         0.011471     -0.102173      0.015950
Li	      8.32080      8.44540      8.11028        -0.004036     -0.001600     -0.015608
Li	      6.33925      6.41469      8.11970        -0.034675     -0.008457      0.000836
Ti	      4.31767      4.14345      4.00072         0.109396     -0.077593     -0.133674
Mn	      4.31455      6.29100     10.14503        -0.147654      0.079954     -0.244753
Mn	      6.32916      6.32077      4.06782         0.059286      0.047210     -0.071146
Mn	      6.31049      4.15909      6.17815        -0.053982      0.070974      0.001315
Fe	      8.50437      4.25155      8.08602        -0.003852      0.166289      0.096945
Fe	      8.35732      6.42590     10.19949         0.098095     -0.235585     -0.211066
Cu	     10.53064      8.42522     10.17245         0.020367      0.061958     -0.221692
Ni	      2.12023      2.06372      0.06517        -0.171188     -0.058351      0.127149
Ni	      6.23139      8.44458      6.21013         0.213805     -0.129731     -0.211220
O	      6.34007      8.42730      8.10315        -0.070659     -0.021441      0.163932
O	      2.11988      2.24804      2.12891         0.015128     -0.064811      0.051558
O	      4.17117      4.20879      2.12660         0.090759     -0.031607      0.191863
O	      4.08814      2.16990      4.08950         0.072360      0.117478      0.007446
O	      6.29398      4.16314      4.17934        -0.107489     -0.017275     -0.073236
O	      6.39350      2.28894      6.14891         0.018884     -0.031534     -0.033471
O	      8.34498      4.18898      6.06792         0.036467      0.026978     -0.063349
O	      2.28693      4.29245      4.13419         0.149063     -0.037356      0.016307
O	      4.33500      6.18479      4.05852         0.008565      0.040892      0.042447
O	      4.40224      4.17165      6.05677        -0.065532      0.062827     -0.021606
O	      6.34614      6.18847      5.99843        -0.025432      0.068681      0.091666
O	      6.48340      4.25006      8.09965        -0.174708     -0.052373      0.073389
O	      8.49733      6.21814      8.30785         0.046161      0.002383     -0.320642
O	      2.11029      6.32098      5.99347         0.022470     -0.107501      0.377085
O	      4.20373      8.39845      5.98326        -0.024402      0.011353      0.072047
O	      4.22566      6.30416      8.32272        -0.004601      0.026151      0.096925
O	      6.35187      6.30003     10.21971        -0.103034     -0.088780      0.022912
O	      8.43510      8.36961     10.20157         0.015189      0.203485     -0.039524
