# total energy = -218.71495116 eV
 
CRYSTAL
PRIMVEC
0.011237 6.429983 6.181166 
6.193361 0.009205 6.184704 
4.124468 4.284627 0.010059 
PRIMCOORD
36 1
Li	      2.08893      2.12315      0.05378        -0.012195      0.036231     -0.006837
Li	      4.15019      0.07881      4.09818         0.017978     -0.006094     -0.006056
Li	      4.20120      6.40866      2.16173        -0.057052      0.015054     -0.026277
Li	      2.01482      4.24199      2.15753         0.006588      0.032871     -0.012415
Li	      6.12135      6.41021      4.10164        -0.033177     -0.071882      0.059352
Li	      4.08617      4.40102      4.07194         0.013101      0.006113     -0.007770
Li	      4.18216      8.47472      4.18756        -0.009991      0.006436      0.004090
Li	      4.15242      6.54204      6.10118         0.050444      0.017054      0.026093
Li	      6.17924      6.39566      8.27195        -0.027768     -0.051923     -0.021511
Ti	      4.24623      4.30045      8.29916         0.285519      0.013957     -0.001198
Mn	      2.07861      0.05882      2.08417         0.063567      0.080148      0.053291
Mn	      6.22995      4.25992      6.12510        -0.043850      0.128023     -0.006470
Mn	      2.11428      6.39999      4.12657         0.019087     -0.044733     -0.083227
Fe	      4.12084     10.67429      6.19699        -0.183006      0.051055     -0.092820
Fe	      4.08721      2.12038      6.07569        -0.022131     -0.054393      0.158753
Cu	      4.07400      2.18483      2.12931         0.049616     -0.060065      0.033493
Cu	      2.04432      4.27478      6.12328         0.126696     -0.143210      0.061957
Ni	      6.19129      8.56824     10.29504         0.075751      0.010591      0.003366
O	      4.18358      8.68601      6.29675        -0.158447     -0.067029     -0.041389
O	      2.14103      1.97305      2.10799         0.008409     -0.040757      0.024400
O	      4.27600      4.40772      1.96372        -0.023246     -0.002413      0.238301
O	      4.16843      2.13117      4.12265        -0.273518      0.021854     -0.127260
O	      6.21669      4.20749      4.20640        -0.011362      0.071325      0.040371
O	      6.13166      2.24200      6.16590        -0.062846     -0.291424      0.110276
O	      8.23165      4.34677      6.22584         0.220936      0.038373     -0.020836
O	      2.05375      4.47979      4.18358         0.010646      0.076345     -0.151092
O	      3.96636      6.44680      4.14678         0.019169      0.021993     -0.003637
O	      4.18096      4.14505      6.25807        -0.159778      0.001938     -0.006999
O	      6.24581      6.21139      6.14855        -0.069113      0.221181      0.007314
O	      6.11690      4.29692      8.14129        -0.258388     -0.013554      0.002348
O	      8.19408      6.56326      8.29926         0.006625      0.072114      0.097785
O	      2.00982      6.53886      6.07744         0.187539      0.042495     -0.063128
O	      4.04001      6.21811      8.25008         0.060223     -0.171185     -0.006914
O	      6.21228      8.71163      8.16405        -0.026656      0.064642      0.061722
O	      6.28309      6.48985     10.39927         0.071913     -0.059661     -0.230564
O	      8.25429      8.41493     10.20795         0.138715      0.048532     -0.066514
