# total energy = -217.51364719 eV
 
CRYSTAL
PRIMVEC
0.034326 6.160231 6.275813 
6.442343 0.013635 6.296657 
4.314336 4.140717 -0.010563 
PRIMCOORD
36 1
Li	      4.32098      2.07032      2.22359         0.018179      0.017454     -0.052176
Li	      6.24979      2.05580      4.12167         0.028068      0.011466     -0.035728
Li	      4.25018      6.19600      2.19238        -0.034104     -0.024286      0.031099
Li	      2.29665      2.07337      4.23995        -0.014749      0.014011     -0.011519
Li	      4.32178      3.93781      4.19667         0.025185      0.039202     -0.024911
Li	      4.16723      2.13391      6.19666        -0.009374     -0.006637      0.014000
Li	      6.60997      8.11106      6.29239         0.041504     -0.048859      0.011986
Li	      8.61361      8.15192      8.33242        -0.030981     -0.016406     -0.023260
Li	      6.61348      6.23773      8.38101         0.016122      0.039429     -0.021147
Ti	      6.52518     10.18250      8.49102         0.020970     -0.394056      0.226189
Mn	      8.61532      2.13404      6.30325        -0.056503     -0.093301      0.184223
Mn	      6.44614      4.12782      6.35234         0.045166     -0.032548      0.024639
Mn	      6.44565      4.13666     10.41846         0.176219     -0.210032     -0.074121
Fe	      6.45329      0.10403      6.32587        -0.068018      0.027455      0.210400
Fe	      4.44516      6.10958      6.26743        -0.032453      0.106271     -0.108164
Cu	      4.34605      6.27463     10.37056         0.061104     -0.256339      0.148430
Cu	      2.15229      4.10766      2.19334         0.077004      0.022725      0.133257
Cu	      8.65660      6.16250     10.39504        -0.110497      0.028155      0.330112
O	      8.63609      6.07208      8.49867        -0.061162      0.103014     -0.363574
O	      6.51632      8.34764      8.29412         0.023722      0.382356      0.067157
O	      2.17498      2.05229      1.89387         0.038798     -0.022874      0.045814
O	      4.53332      4.16121      1.92099         0.234327     -0.010563      0.121280
O	      4.28807      2.00325      4.21033         0.058361      0.071166     -0.049738
O	      6.49742      4.14906      4.07341         0.032213     -0.047462     -0.289849
O	      6.66062      2.14503      6.24380        -0.067589     -0.023369     -0.030076
O	      8.56748      4.06954      6.46275         0.040922      0.111401     -0.030337
O	      1.94012      4.07518      4.19336        -0.131095     -0.097566      0.130993
O	      4.30230      6.35440      4.27795         0.016971      0.057876     -0.034245
O	      4.48797      4.14084      6.22777        -0.052478     -0.056138     -0.052933
O	      6.40983      6.05236      6.32956         0.074448      0.008713     -0.034927
O	      6.31815      4.12569      8.54359        -0.139072      0.000239      0.143224
O	      2.14204      6.33362      6.16029        -0.010760      0.002277      0.045895
O	      4.18265      8.30752      6.15787         0.060498     -0.031347     -0.070135
O	      4.12319      6.21866      8.15504        -0.157003     -0.000569      0.017469
O	      6.40237      6.12211     10.59553        -0.078323      0.093843     -0.334631
O	      8.77665      8.40776     10.60749        -0.035619      0.235298     -0.244695
