# total energy = -225.34852290 eV
 
CRYSTAL
PRIMVEC
0.019590 6.457180 6.303380 
6.231186 0.022101 6.301238 
4.142600 4.291627 0.026284 
PRIMCOORD
36 1
Li	     10.30734      4.31104      6.37736        -0.094247      0.044427      0.013277
Li	      4.05277      2.33831      2.35392        -0.072010     -0.025597      0.022722
Li	      4.10247      0.23089      4.26179        -0.130476      0.158934      0.063408
Li	      5.99734      2.21180      4.30858        -0.007867      0.049730      0.049135
Li	      2.17237      4.15547      2.06890        -0.022758     -0.107142     -0.129140
Li	      2.24128      2.13409      4.24262         0.106570     -0.217104     -0.079456
Li	      4.16670      4.06095      4.19455         0.067673     -0.111681     -0.014378
Li	      4.13113      2.22581      6.11572         0.056600     -0.024154     -0.100739
Li	      4.17714      6.46111      6.23409         0.057852     -0.031587      0.085006
Ti	      6.11906      6.55266      8.41385        -0.614110      0.044552     -0.539669
Mn	      2.09572      8.58667      6.30131        -0.005293      0.240243      0.145587
Mn	      6.22756      4.33267      6.18024         0.171097     -0.088797      0.013335
Mn	      8.30155      8.61482      8.46886        -0.043048      0.268687     -0.002817
Fe	      4.17856      6.24205      2.12502         0.214030      0.141979     -0.499081
Fe	      0.07701      4.28479      4.22497        -0.199235      0.301966     -0.166733
Fe	      2.14249      4.38443      6.25959         0.031979     -0.231468      0.508491
Co	      6.18633      4.29729      2.25855         0.163609      0.106270      0.232277
Co	      2.14105      6.42209      4.24076        -0.109405      0.289909     -0.476051
O	      4.13379      2.13012      4.23481        -0.025371      0.045928      0.030070
O	      2.04457      2.11915      1.93095        -0.088317     -0.241547      1.020130
O	      4.14700      4.35973      2.14369        -0.029721     -0.110173      0.007441
O	      6.19259      4.30423      4.28755        -0.006014      0.032939     -0.031243
O	      6.38083      2.11652      6.36639        -0.163796     -0.121812      0.052597
O	      8.20507      4.07500      6.28479        -0.080841      0.375707     -0.119715
O	      2.05539      4.34529      4.30208         0.192358      1.224369     -0.260227
O	      4.18523      6.61913      4.06688        -1.130163     -0.277432      0.438628
O	      4.16671      4.37199      6.36530        -0.063278      0.019738     -0.295359
O	      6.22519      6.59667      6.47429        -0.008097      0.113615      0.117253
O	      6.24895      4.46502      8.29639         0.527865      0.060623      0.115553
O	      8.31861      6.66725      8.39498         0.022294     -0.863041      1.236987
O	      2.12066      6.46102      6.36937        -0.010738     -0.282956     -1.222546
O	      4.12394      8.62088      6.23361         0.141852     -0.011694     -0.153272
O	      4.20902      6.26724      8.46476         0.463755      0.656640      0.101565
O	      6.22634      8.50846      8.37107        -0.434559     -0.102054     -0.123858
O	      6.30628      6.34769     10.31778         1.156131      0.035244      0.501309
O	      8.39987      8.54964     10.59847        -0.034318     -1.363261     -0.540486
