# total energy = -91.23256689 eV
 
CRYSTAL
PRIMVEC
2.126302 4.295678 2.125947 
4.344285 -4.355346 0.027967 
4.316146 -0.000143 -4.315124 
PRIMCOORD
16 1
Li	      2.34404     -2.15583      0.06001         0.265953     -0.665429     -0.125821
Li	      4.48535      0.03003      0.03556         0.635402     -0.000590      0.374675
Li	      4.54102     -2.20282     -2.23134         0.242946      0.122223      0.276611
Li	      6.69214     -0.09421     -2.24612         0.059264     -0.400649      0.423621
Mn	      0.41933     -0.00259     -0.07557        -7.595388      0.078245     -0.054984
Mn	      2.41231      2.05911     -0.02715        -0.551044      2.842071     -1.069746
Ni	      2.51652     -0.00281     -2.17259        -1.057245     -0.098205     -1.380253
Ni	      4.63124      2.05890     -2.24560        -0.898794      1.126878      0.355251
O	      6.72827     -0.18873      0.10712         0.496386     -0.590658     -0.238155
O	      6.75696     -2.29237     -2.06323         0.188699      0.123348      1.113956
O	      4.30255      2.22961     -0.02887         0.347796     -0.791432     -0.412881
O	      4.47596     -0.00440     -2.41266         1.367367     -0.183431      0.245411
O	      9.14220     -0.05900     -2.23665        -0.056185     -0.584533      0.316669
O	      4.61243     -2.42239      0.01143         1.421449      0.228244     -0.258363
O	      6.71693      2.35941     -2.37211         0.203517     -1.158333      0.182917
O	      2.13208      0.12599      0.00038         4.929877     -0.047748      0.251092
