# total energy = -221.46156408 eV
 
CRYSTAL
PRIMVEC
0.028992 6.317393 6.273684 
6.290621 0.037556 6.264850 
4.192028 4.204100 0.027520 
PRIMCOORD
36 1
Li	      4.22505     10.48026      6.28125        -0.046178     -0.087722      0.032348
Li	      2.16094      8.40775      6.28579         0.114926      0.019899     -0.029338
Li	      2.14266      6.32218      8.29641         0.013373      0.030410     -0.095462
Li	      8.38742      4.26555      8.34739         0.012533      0.032468      0.023108
Li	      6.26732      6.36684      4.24782        -0.030606      0.144703     -0.006217
Li	      8.35564      6.30158      6.33238        -0.003737     -0.002515      0.035301
Li	      4.25349      8.41476      4.25376         0.055139     -0.079817      0.056013
Li	      4.21248      6.38572      6.25695        -0.017754      0.058971     -0.064402
Li	      6.32031      6.33726      8.35777        -0.004261     -0.035117      0.006649
Ti	      0.14478      2.07922      1.99460         0.266231     -0.078045      0.123380
Mn	      4.18485      8.43404      8.30614        -0.135662     -0.007060     -0.064800
Mn	      8.46023     10.52295     10.50265        -0.091133      0.003927      0.010758
Mn	      2.07331      6.31435      4.25202         0.194667     -0.045282     -0.119615
Fe	      4.19734      4.23641      4.21102        -0.229799     -0.029025      0.096674
Fe	      6.34592      4.39443      6.29219         0.062585     -0.193659      0.111976
Fe	      8.35979      8.44327      8.34890         0.216298      0.054225     -0.043082
Cu	      6.26530      8.38227      6.29828        -0.023274     -0.034703     -0.094370
Ni	      6.27670      2.10815      4.23762         0.038416     -0.180684     -0.185445
O	      2.02617      2.12637      2.09004        -0.261710     -0.030027     -0.023057
O	      4.18252      4.29663      2.17223         0.055746      0.082383     -0.088614
O	      4.22273      2.16691      4.01119        -0.034862      0.041120      0.024825
O	      6.26433      4.16516      4.26823         0.040164     -0.099500     -0.123358
O	      6.26870      2.18315      6.37123         0.016171     -0.050474      0.269590
O	      8.31760      4.26129      6.13720         0.058059      0.023804      0.020312
O	      2.18692      4.26775      4.28909         0.002890     -0.106801     -0.401239
O	      4.16663      6.23794      4.09657         0.171039      0.096690     -0.117005
O	      4.29635      4.22372      6.28087         0.055088      0.003721      0.061821
O	      6.31578      6.28544      6.30384         0.002900      0.489733      0.022451
O	      6.24734      4.12810      8.32070         0.073362     -0.037592     -0.003546
O	      8.47875      6.42164      8.52395        -0.025417     -0.077892     -0.021481
O	      2.12582      6.27303      6.12154        -0.057790     -0.278302      0.168248
O	      4.19726      8.39096      6.45483        -0.175571      0.041578      0.052594
O	      4.20978      6.26998      8.53288         0.019412      0.046669     -0.051445
O	      6.34507      8.44293      8.30952        -0.231316      0.011797      0.404519
O	      6.30890      6.37748     10.47191        -0.095923      0.259905     -0.013951
O	      8.37218      8.41733     10.41667        -0.004005      0.012215      0.025859
