# total energy = -221.42166553 eV
 
CRYSTAL
PRIMVEC
0.017771 6.184372 6.203410 
6.428665 0.014186 6.206766 
4.302187 4.141492 -0.007244 
PRIMCOORD
36 1
Li	      6.42854      4.18227      2.20026        -0.014460      0.004233     -0.083890
Li	      8.43079      4.14330      4.07702        -0.027645      0.026707     -0.055351
Li	      2.22483      4.06292      2.21298         0.058183     -0.040411      0.119262
Li	      6.34815      6.13652      4.09734        -0.064973      0.055043      0.009251
Li	      4.38820      4.20831      4.10235        -0.004351     -0.000382      0.026967
Li	      6.40340      4.16541      6.06766        -0.044496      0.034331      0.080531
Li	      0.11488      4.02083      4.12029         0.068969     -0.069451      0.031916
Li	      2.24861      6.12493      4.13245         0.064421     -0.028564      0.003305
Li	      4.31810      6.16409      6.07986         0.003853      0.012129     -0.023076
Ti	      4.24802      2.00335      6.04720        -0.191771     -0.046943     -0.121427
Mn	      8.61312      8.25506     12.33605         0.077044     -0.010017      0.023254
Mn	      2.17186      4.15954      6.10911        -0.014749      0.032582     -0.078446
Mn	      4.30801      4.16249      8.30792         0.043414      0.147793     -0.112072
Fe	      6.47020      6.19732     12.37771         0.054152     -0.158882      0.014819
Fe	      4.38594      6.14450      2.22354        -0.167009      0.101140     -0.103404
Fe	      6.42782      6.16061      8.40050         0.051116      0.015717     -0.180760
Cu	      4.20497      2.11296      2.15549        -0.129039     -0.168520     -0.013447
Cu	      6.45973      2.19551      4.12820        -0.005831     -0.144828      0.048980
O	      6.43955      4.08241      4.15161         0.005595      0.069242     -0.010733
O	      2.02352      2.08409      1.96188         0.073103     -0.019451      0.118350
O	      4.26365      4.13252      2.00139        -0.010923      0.148028     -0.014638
O	      4.32217      2.09728      4.18108         0.055531     -0.020168      0.293041
O	      6.30189      2.03695      6.37123        -0.079294      0.070019     -0.030727
O	      8.66867      4.23868      6.19507        -0.012589      0.176319     -0.068643
O	      2.12561      4.11550      4.28348        -0.017317     -0.019215     -0.045400
O	      4.30216      6.19491      4.06293         0.003897     -0.030337      0.146725
O	      4.19125      4.06988      6.27418         0.037260     -0.058901      0.010193
O	      6.61200      6.26782      6.25793         0.196710     -0.064019     -0.024781
O	      6.26136      4.16927      8.28018         0.125563     -0.071781      0.007358
O	      8.56607      6.32877      8.19899         0.019092     -0.140088     -0.021834
O	      2.07987      6.13476      6.18514        -0.014897     -0.013320     -0.015423
O	      4.42573      8.30580      6.30398         0.094282     -0.016194     -0.093904
O	      4.44244      6.13456      8.23314        -0.037690      0.015482      0.026563
O	      6.64770      8.22278      8.10666        -0.092126      0.101403      0.079411
O	      6.46042      6.34158     10.34681         0.012017      0.069190      0.112340
O	      8.54842      8.29413     10.27461        -0.115045      0.042116     -0.054313
