# total energy = -229.03621234 eV
 
CRYSTAL
PRIMVEC
0.001527 6.317709 6.272994 
6.283546 -0.000425 6.274522 
4.202121 4.225349 -0.012910 
PRIMCOORD
36 1
Li	      6.27086      0.05084      6.24529         0.009503      0.026395     -0.007471
Li	      8.36414      2.15842      6.22863         0.019817      0.023827     -0.020529
Li	      6.21898      4.26070      2.06383        -0.061959      0.012790     -0.013745
Li	      8.44059      4.21461      4.28056         0.069761      0.065542      0.068670
Li	      0.07616      2.03173      2.08175        -0.000214     -0.048920     -0.022011
Li	      6.20371      6.28362      4.15801        -0.079768     -0.042523     -0.011500
Li	      4.22397      2.05376      6.22995         0.005547     -0.018409      0.001608
Li	      4.14846      8.41279      4.22837        -0.013845     -0.013985      0.013039
Li	      4.17157      6.32792      6.19959        -0.011023      0.011011     -0.041707
Ti	      4.03228      2.12357      2.05032        -0.292280      0.019297     -0.115333
Mn	      2.15599      6.30896      4.19212        -0.000405      0.013194      0.019906
Mn	      2.08701      4.19140      6.21817         0.007041      0.011420     -0.002207
Mn	      6.31785      6.34852      8.38358         0.009961      0.003633      0.007741
Fe	      6.31108      2.17227      4.24447         0.047545      0.001474     -0.022574
Fe	      2.10912      4.15677      2.03810        -0.076758      0.096649      0.018392
Fe	      6.32938      4.16995      6.25728        -0.038225      0.098389      0.036413
Fe	      4.20371      4.30407      8.39889         0.000886     -0.012486     -0.046605
Co	      4.17969      4.19596      4.17356        -0.005762      0.010472     -0.020349
O	      2.20938      2.00106      2.04569         0.351893     -0.061053      0.041761
O	      4.22929      4.09746      2.22472         0.055970     -0.140045     -0.003576
O	      4.29535      2.21257      4.06539        -0.080441      0.024625     -0.061232
O	      6.13241      4.22714      4.28705        -0.045397      0.024318     -0.100713
O	      6.30765      2.16584      6.18942        -0.047450     -0.049808      0.094774
O	      8.27692      4.26879      6.31025         0.078020      0.008921     -0.171389
O	      2.20426      4.09235      4.09278         0.068570      0.006786      0.170021
O	      4.08062      6.14289      4.14672         0.021333     -0.044006     -0.006442
O	      4.17076      4.21494      6.23999         0.005138     -0.000370      0.018388
O	      6.29759      6.42866      6.41611        -0.011443     -0.020208      0.003986
O	      6.17518      4.18334      8.27992        -0.009225      0.018030      0.078233
O	      8.29129      6.42738      8.45696        -0.011435      0.068218     -0.008593
O	      2.08779      6.12139      6.11041         0.019891     -0.020688      0.031603
O	      4.28301      8.44445      6.41547         0.019609     -0.012232      0.103001
O	      4.33700      6.40969      8.42521         0.005105      0.016135     -0.029520
O	      6.37974      8.56627      8.42070        -0.027497     -0.068952     -0.015953
O	      6.40808      6.41313     10.36409         0.027333     -0.021194     -0.031415
O	      8.36941      8.51878     10.37251        -0.009797      0.013753      0.045329
