# total energy = -225.73101930 eV
 
CRYSTAL
PRIMVEC
-0.007992 6.432573 6.178954 
6.283382 0.006450 6.164291 
4.190870 4.280740 0.002466 
PRIMCOORD
36 1
Li	      6.26800      6.48349     12.27178         0.011061     -0.044552     -0.022358
Li	      6.26237      4.29279      2.14050         0.033104      0.007645     -0.012806
Li	      6.25232      2.25615      4.22287         0.037801     -0.061985     -0.019692
Li	      6.24042      6.32798      4.17595        -0.011877     -0.005901      0.001616
Li	      4.35653      4.28262      4.16286        -0.020720      0.001919      0.054937
Li	      4.25346      2.21911      6.05082         0.033364     -0.017271     -0.005927
Li	      6.22677      4.20953      6.07996         0.003224     -0.030758      0.008079
Li	      4.17369      8.51855      4.11680        -0.024125      0.018473      0.000028
Li	      2.12812      6.40331      4.16057        -0.045177     -0.003756     -0.017736
Ti	      6.33448      6.40892      8.29720         0.016232      0.010712      0.349549
Mn	      2.09771      8.51293      6.13939         0.000973     -0.025607     -0.024453
Mn	      4.21830      2.19480      2.13692        -0.021662      0.109388      0.055301
Mn	      4.18460      4.31883      8.22049        -0.004708      0.018382     -0.035360
Fe	      8.22088      4.33232      4.20044         0.254194     -0.012342     -0.021631
Fe	      4.21913      6.27543      2.12763        -0.068019      0.006211     -0.009767
Fe	      2.09480      4.23614      2.15436        -0.060590     -0.039955     -0.056283
Fe	      2.10467      4.28088      6.02360        -0.090488      0.166153     -0.010656
Cu	      4.17396      6.41402      6.00750         0.007894     -0.021502     -0.089369
O	      2.03334      2.24809      2.12526         0.017514     -0.127926     -0.014253
O	      4.10217      4.25112      2.12902         0.075658     -0.061023     -0.003875
O	      4.22815      2.04769      4.04742        -0.018758      0.106819     -0.002793
O	      6.34826      4.28255      4.11759        -0.152452     -0.009087      0.001930
O	      6.43141      2.06449      6.30284        -0.086665      0.010761     -0.081307
O	      8.37620      4.08553      6.19605         0.004761      0.027279      0.046358
O	      2.01330      4.34259      4.11770        -0.026014     -0.030976     -0.046057
O	      4.14354      6.46182      3.98199        -0.007586     -0.003347      0.120131
O	      4.09166      4.22165      6.25838         0.097984     -0.024757      0.082371
O	      6.13087      6.57013      6.23123         0.067636     -0.112986      0.032153
O	      6.22843      4.40779      8.17151         0.013148      0.053306     -0.015803
O	      8.30937      6.29647      8.14405        -0.032358      0.079427      0.018588
O	      2.21378      6.51041      6.15866        -0.110461      0.004080      0.033329
O	      4.17492      8.68270      6.35001         0.007067      0.068918      0.011036
O	      4.28819      6.56231      8.25621         0.074036      0.015303     -0.014203
O	      6.38141      8.48347      8.14420         0.038795     -0.026838      0.020566
O	      6.23964      6.46685     10.12692        -0.047250     -0.000653     -0.336996
O	      8.38449      8.69717     10.16780         0.034466     -0.043556      0.005353
