# total energy = -230.00303427 eV
 
CRYSTAL
PRIMVEC
0.028928 6.345779 6.154006 
6.445704 0.003600 6.180612 
4.308118 4.258566 -0.009198 
PRIMCOORD
36 1
Li	      0.12597      6.26401      6.08906        -0.056110      0.039072     -0.009992
Li	      8.47007      2.07283      6.14483        -0.083306     -0.016986     -0.040280
Li	      6.70921      8.35415     10.31021         0.023977      0.028134      0.008499
Li	     10.69948      6.44078      8.27813        -0.039228      0.003733      0.010611
Li	      4.18577      4.39595      4.07801        -0.018711      0.001493     -0.019840
Li	      4.23512      8.43138      4.14547         0.012105     -0.000603      0.013621
Li	      2.31523      6.50567      4.11837         0.033242      0.025945      0.006891
Li	      4.24338      6.42884      6.08933         0.019736     -0.013351     -0.009156
Li	      8.69072      8.40081      8.31800         0.043695      0.050990      0.009776
Ti	      4.47598      2.15563      6.10977         0.207232     -0.022555      0.144192
Mn	      6.41338      4.22565      2.05329        -0.002926      0.079923      0.025138
Mn	      4.30155      2.13255      2.08277        -0.034785     -0.073654      0.065289
Mn	      2.17879      4.25917      6.14396         0.131695     -0.052673     -0.063344
Fe	      8.72839     10.44491     10.29228        -0.019586      0.144927      0.008981
Fe	      2.16126      4.22636      2.06698        -0.092453      0.032496     -0.088833
Fe	      6.23795      6.43355      4.05006         0.178596     -0.099914      0.124367
Fe	      6.36150      4.25140      6.10594         0.022088      0.050692      0.091081
Fe	      6.53649      6.32794      8.31829         0.042336     -0.005990     -0.263417
O	      2.10251      1.96654      2.03440        -0.014277     -0.064244     -0.006347
O	      4.17755      4.04436      2.09051         0.259887      0.016706     -0.033387
O	      4.18106      2.05678      4.12829         0.005834      0.010149      0.011877
O	      6.51215      4.32924      4.04690         0.016209     -0.036416     -0.223143
O	      6.31517      2.13538      6.15623        -0.362151     -0.100837     -0.016542
O	      8.53402      4.42697      6.09732         0.120139      0.126173     -0.039194
O	      2.13055      4.18290      4.21328         0.022823      0.015512      0.241371
O	      4.37567      6.38137      4.08293        -0.154096     -0.045407      0.074146
O	      4.19952      4.12266      6.12087        -0.180869     -0.131355     -0.032456
O	      6.54295      6.50675      6.16255        -0.003096      0.168611     -0.061175
O	      6.52949      4.35567      8.12569        -0.061722     -0.030295      0.085301
O	      8.54300      6.38569      8.08999         0.057080      0.081814     -0.148076
O	      2.20590      6.19532      6.27663        -0.027599     -0.037117      0.013681
O	      4.56651      8.47442      6.28986         0.072237      0.023185     -0.053934
O	      4.47143      6.49738      8.27236        -0.127772      0.076491     -0.055817
O	      6.56644      8.55159      8.13794        -0.008121     -0.016334     -0.074242
O	      6.42539      6.39137     10.21184         0.037873     -0.003023      0.288499
O	      8.65643      8.57128     10.33079        -0.019975     -0.225291      0.015853
