# total energy = -217.96499381 eV
 
CRYSTAL
PRIMVEC
0.029737 6.192463 6.389735 
6.232739 0.057609 6.360945 
4.154838 4.109001 0.038984 
PRIMCOORD
36 1
Li	      8.33085      8.30666     12.72318        -0.004554     -0.049915     -0.119168
Li	      6.33745     10.22769      8.57977         0.048968     -0.047373     -0.020794
Li	      4.13885      6.22759     10.55136         0.011400     -0.000874     -0.164364
Li	      6.24323      8.34662     10.55931        -0.015164      0.018437     -0.142222
Li	      4.23033      4.05540      4.36381         0.021979     -0.079721      0.185560
Li	      4.14223      2.18834      6.33428        -0.052976      0.120736     -0.093652
Li	      6.31593      8.25903      6.55079         0.137860      0.075210      0.203300
Li	      4.10614      4.20701      8.44938        -0.077093     -0.011032     -0.069730
Li	      6.19066      6.31041      8.49112        -0.046122      0.092763     -0.000016
Ti	     10.27564      4.20675      6.38799        -0.204293      0.088827     -0.037150
Mn	      6.24718      2.13516      8.44048         0.075165     -0.317479     -0.132804
Mn	      6.27231      6.14763      4.33149         0.779950      0.133096     -0.035478
Mn	     10.37598      8.30669     10.67453        -0.143740      0.191244      0.155460
Mn	      8.32662      6.25856     10.65833        -0.079205     -0.020512      0.140443
Co	      6.23227      4.13632      6.34775        -0.082872     -0.261114     -0.334889
Cu	      4.29251      8.19509      8.56206        -0.084300      0.163663      0.140176
Ni	      8.31098      4.17974      8.49043         0.165032     -0.010600     -0.074063
Ni	      4.15036      6.15550      6.49076        -0.053050     -0.053747      0.055750
O	      4.17066      6.28795      8.46742        -0.024046     -0.248560      0.069738
O	      6.21207      8.26699      8.56689         0.181075      0.020359      0.002437
O	      1.98861      2.07224      2.32386        -0.122869     -0.116423      0.064204
O	      4.16634      4.20251      2.02807         0.066589      0.217245     -0.020498
O	      4.01320      2.10860      4.14064        -0.422237     -0.003851      0.187746
O	      6.23996      4.26432      4.42762         0.132816     -0.093783     -0.113150
O	      6.22621      2.07917      6.31191         0.092458     -0.268367     -0.034451
O	      8.35304      4.16793      6.42182         0.892736      0.017958     -0.006839
O	      1.96953      4.09673      4.24170        -0.044700     -0.027395      0.105465
O	      4.27181      6.28820      4.36051        -0.013948     -0.080761     -0.026644
O	      4.33454      4.16446      6.37907        -1.221663     -0.120558      0.140913
O	      6.26157      6.06215      6.25969         0.133309      0.515966      0.010287
O	      6.28529      4.06911      8.32759        -0.020934      0.122302      0.329331
O	      8.45228      6.19134      8.71943        -0.079441      0.140766      0.000305
O	      2.00345      6.20682      6.22376         0.005617      0.004518     -0.036782
O	      4.16786      8.36074      6.52588        -0.030426     -0.071975     -0.271071
O	      6.22574      6.13219     10.74930        -0.034398     -0.098171     -0.041264
O	      8.48506      8.20393     10.63380         0.113076      0.059122     -0.016088
