# total energy = -218.70850846 eV
 
CRYSTAL
PRIMVEC
0.003158 6.123727 6.365196 
6.409746 0.015719 6.351460 
4.242252 4.043170 0.042763 
PRIMCOORD
36 1
Li	      6.40513      6.10385     12.62215         0.015150      0.030000     -0.010239
Li	      2.23355      6.11543      8.52580         0.043372     -0.004318      0.003356
Li	      4.31429      8.07815      8.53106        -0.003079      0.088341      0.053994
Li	      4.33756      6.07660     10.49777        -0.084201      0.039028     -0.033734
Li	      6.42695      8.10352     10.45898        -0.036362      0.073642     -0.106313
Li	      8.51412      4.06745      8.45142         0.056728     -0.031132     -0.012675
Li	      8.39581      6.13579     10.55683         0.022445     -0.039489     -0.050531
Li	      4.28666      6.13063      6.59706        -0.058015     -0.025163      0.065932
Li	      8.48890      8.21182      8.65776        -0.073007      0.008964      0.023072
Ti	      2.17136      8.03149      6.27307        -0.025049     -0.216586      0.030666
Mn	      0.01811      2.02600      2.09869         0.138430     -0.009104     -0.038989
Mn	      4.29826      4.09657      4.27150        -0.008803     -0.067692     -0.333142
Mn	      8.54513      6.04429      6.41234         0.150647     -0.115570     -0.193118
Mn	      6.34184      8.20429      6.49726         0.076774      0.253487      0.017180
Co	      6.27776      6.15674      8.54144         0.014884     -0.348345      0.277105
Cu	      2.18644      2.06460      4.18670         0.114149     -0.018041     -0.097556
Cu	      6.41367      4.09535      6.33758         0.011605     -0.119521     -0.047910
Cu	      6.34552      4.12923     10.54408        -0.001137     -0.195604      0.001054
O	      4.40983      6.12992      8.53135        -0.694008     -0.139049      0.010260
O	      6.40523      6.04479     10.41491         0.107283      0.086302     -0.342717
O	      1.95307      2.03985      1.97049         0.039849      0.031281     -0.155772
O	      4.21684      4.14520      2.36150        -0.036513     -0.153405      0.150371
O	      4.24334      2.15169      4.37400         0.016971     -0.107616      0.219139
O	      6.22935      4.16382      4.28098         0.025828      0.017933      0.062205
O	      6.49016      1.92395      6.54297        -0.026179     -0.002808     -0.004148
O	      8.38658      4.08840      6.32682         0.189593      0.066140      0.006204
O	      2.35121      4.02981      4.44561         0.017677      0.063133      0.097541
O	      4.31534      6.08983      4.11341        -0.003047      0.192136     -0.038917
O	      4.41912      4.01412      6.23313        -0.129919      0.052447      0.136831
O	      6.35626      6.26696      6.61053         0.055647     -0.110727      0.357786
O	      6.42110      4.03369      8.53183        -0.023402     -0.266728     -0.042101
O	      8.67131      6.09869      8.35478         0.071524      0.033087      0.000961
O	      2.15980      6.10796      6.38367        -0.021069      0.291853     -0.072792
O	      4.09693      8.18793      6.29605        -0.056825     -0.037609      0.017891
O	      6.37848      8.09822      8.42153         0.175803      0.737669     -0.119185
O	      8.34362      8.12260     10.79737        -0.063743     -0.056937      0.168289
