# total energy = -220.81299566 eV
 
CRYSTAL
PRIMVEC
-0.025111 6.231343 6.335865 
6.176696 -0.028884 6.340233 
4.106920 4.146196 -0.008890 
PRIMCOORD
36 1
Li	     10.16763      4.16904      6.32912         0.061646     -0.006259     -0.048342
Li	      8.18435      2.21292      6.39181         0.012280     -0.052364     -0.019265
Li	      2.05873      0.03924      2.12606        -0.003662     -0.029565      0.018408
Li	      8.07124      4.22156      4.34131        -0.012422      0.052696     -0.066884
Li	      8.22316      4.10669      8.28375        -0.038774      0.047670      0.010720
Li	      2.08883      1.97205      4.14595        -0.012175      0.009668     -0.021906
Li	      6.26670      4.10988      6.30018        -0.057641      0.058211     -0.032498
Li	      8.20735      8.24116      8.48986        -0.008365     -0.013314      0.072580
Li	      6.18406      6.24974      8.40106         0.087225     -0.056466      0.043746
Ti	      6.14196      4.26653     10.49524        -0.106852      0.148442     -0.356792
Mn	      6.16335      8.28258     10.54932        -0.017499     -0.032855     -0.142003
Mn	      6.22270      2.03185      8.35900         0.026683      0.033048      0.013431
Mn	      4.10608      4.11745      4.18440         0.029016     -0.028046     -0.074962
Mn	      6.16745      8.27064      6.42723         0.005505      0.069328      0.091390
Co	      2.10917      6.18858      4.23798        -0.038814      0.048607      0.005063
Co	      4.13654      6.19231      6.51816        -0.132036     -0.143002      0.325541
Cu	      8.18767      6.10532      6.36368         0.055621      0.135720      0.030762
Ni	      4.01872      2.10902      2.05058         0.021121     -0.166537     -0.084826
O	      8.19370      4.20401      6.27364         0.058604     -0.107607      0.023751
O	      1.95948      2.06254      2.05151        -0.106539      0.023273     -0.059892
O	      4.10254      4.20795      2.26289        -0.034362      0.151869      0.065904
O	      4.05476      2.23075      4.05664        -0.101923      0.091613      0.173121
O	      5.98068      4.09419      4.24559        -0.011769      0.033758     -0.005224
O	      6.09492      2.02406      6.20818        -0.023031      0.042573     -0.057328
O	      2.06817      4.25614      4.22408         0.000805     -0.116195     -0.030888
O	      4.03383      6.12265      4.36475         0.081086      0.102562      0.050070
O	      4.03197      4.08245      6.20670         0.041310      0.027737     -0.117561
O	      6.16841      6.32638      6.34758        -0.094557     -0.053624      0.073230
O	      6.18497      4.02709      8.63694         0.037612      0.020309      0.364081
O	      8.40152      6.21884      8.65159        -0.098214     -0.047007      0.040519
O	      2.08095      6.05180      6.20733         0.103175      0.034613      0.064423
O	      4.19397      8.23982      6.25425         0.020433      0.037918     -0.184252
O	      4.07942      6.21800      8.32838         0.043933     -0.023543     -0.262376
O	      6.12074      8.28745      8.55810         0.098292     -0.016661      0.010723
O	      6.29211      6.14010     10.51380         0.006897     -0.313902      0.073049
O	      8.36235      8.14763     10.62739         0.107390      0.037331      0.014487
