# total energy = -221.62075810 eV
 
CRYSTAL
PRIMVEC
-0.014822 6.068319 6.252068 
6.235843 -0.046530 6.283607 
4.174670 4.083681 -0.048629 
PRIMCOORD
36 1
Li	      6.15641      6.09186     12.37947         0.003833     -0.067978      0.005061
Li	      6.29502      4.07368      2.11753        -0.025088     -0.023484      0.016548
Li	      4.18489      6.06973     10.44553         0.031376      0.008478      0.002526
Li	      6.22988      6.00768      4.12726        -0.008663     -0.007192      0.090551
Li	      8.31202      5.99863      6.23683        -0.056215      0.019516     -0.050004
Li	      6.34000      3.99515      6.17227        -0.007612      0.018462      0.023109
Li	      6.22997      4.21480     10.40885        -0.001557      0.003835      0.009640
Li	      8.23479      6.04351     10.42429         0.009486     -0.002217      0.004890
Li	      6.23645      6.08111      8.41893        -0.022416      0.020867     -0.005854
Ti	      4.18914      6.10418      6.18472         0.026312      0.080718     -0.164011
Mn	      6.23452      8.06479     10.41387         0.045923     -0.047113      0.031018
Mn	      8.27875      4.01742      8.36380        -0.064402      0.095229      0.069185
Mn	      2.04226      4.08038      6.24140        -0.104505      0.079833     -0.040224
Mn	      4.24668      3.98730      8.42337         0.044854      0.028316      0.012120
Co	      8.26272      2.01439      6.23848        -0.135791      0.070137     -0.129060
Co	      4.15617      4.00398      4.17348        -0.014333      0.070026     -0.046734
Cu	      4.16121      8.05500      8.35760         0.017240     -0.038218      0.022427
Cu	      4.15966      6.07007      2.05513        -0.028305     -0.029918     -0.061819
O	      6.19773      6.18189     10.41631         0.040797      0.056627     -0.018119
O	      1.92764      2.06901      1.90991         0.042556     -0.232375     -0.069991
O	      4.05933      4.01742      2.23732         0.144496      0.083679      0.047361
O	      4.28175      2.06999      4.11199         0.000890      0.083366      0.155671
O	      6.09715      3.95707      4.15089        -0.038235      0.029328      0.060925
O	      6.36008      1.99919      6.08420         0.068693     -0.027300      0.054993
O	      8.32909      3.92121      6.42027         0.023321      0.003812     -0.010397
O	      2.16134      4.01378      4.07344         0.102543     -0.052605     -0.082919
O	      4.15917      5.94199      4.29871        -0.003443     -0.028742      0.243881
O	      4.06533      4.07383      6.16660         0.086983      0.043232     -0.066068
O	      6.14665      6.24805      6.20508        -0.115241     -0.045407      0.031489
O	      6.28049      3.98289      8.39134        -0.085649     -0.042341     -0.032936
O	      8.42767      5.98754      8.30360         0.023972      0.124899     -0.018848
O	      2.14815      6.04319      6.26777         0.083397      0.020049     -0.026865
O	      4.13261      8.08158      6.25943        -0.071687     -0.059715     -0.103650
O	      4.17567      6.04564      8.20118        -0.000141     -0.269646     -0.027751
O	      6.39342      8.09689      8.39728        -0.011865      0.017493     -0.044518
O	      8.19816      8.12707     10.53227        -0.001524      0.016354      0.118374
