# total energy = -90.64232190 eV
 
CRYSTAL
PRIMVEC
2.136524 4.316330 2.136168 
4.365171 -4.376286 0.028101 
4.336897 -0.000144 -4.335870 
PRIMCOORD
16 1
Li	      2.37690     -2.15586      0.07085         0.288214     -0.727500     -0.135010
Li	      4.52858      0.03033      0.03590         0.710412     -0.005085      0.412229
Li	      4.58478     -2.22405     -2.25285         0.259332      0.125938      0.303688
Li	      6.75664     -0.09511     -2.26777         0.069853     -0.437564      0.470934
Mn	      0.47548     -0.00290     -0.08674        -9.022163      0.020584     -0.139464
Mn	      2.45655      2.05792     -0.02728        -0.564639      3.134382     -1.135224
Ni	      2.57203     -0.00312     -2.18312        -1.181777     -0.104922     -1.525737
Ni	      4.69686      2.05771     -2.26711        -0.978621      1.215400      0.342820
O	      6.79312     -0.19055      0.10815         0.559920     -0.569516     -0.242100
O	      6.82208     -2.31446     -2.08312         0.203040      0.107888      1.167965
O	      4.34402      2.25110     -0.02915         0.424362     -0.852919     -0.443703
O	      4.51909     -0.00444     -2.43591         1.538865     -0.177385      0.287402
O	      9.23031     -0.05957     -2.25821        -0.136349     -0.636462      0.335627
O	      4.65688     -2.44574      0.01155         1.539907      0.242766     -0.262220
O	      6.78167      2.38215     -2.39498         0.209338     -1.290110      0.222960
O	      2.15263      0.12721      0.00038         6.080308     -0.045496      0.339833
