# total energy = -221.28162370 eV
 
CRYSTAL
PRIMVEC
-0.013029 6.233080 6.227598 
6.391043 -0.011155 6.225340 
4.253948 4.147030 -0.000543 
PRIMCOORD
36 1
Li	      4.24649      6.23633     10.27653        -0.000445     -0.000398      0.019376
Li	      6.40645      8.30950     10.29959         0.073850     -0.018107      0.056053
Li	      6.21977      4.20857      6.29832        -0.017263      0.050426     -0.043589
Li	      0.01855      4.13815      4.12764         0.065469     -0.027040      0.060422
Li	      8.48584      6.21869     10.29745        -0.067317      0.028750      0.014580
Li	      6.42045      8.23861      6.28956        -0.079155     -0.074196     -0.065259
Li	      4.33557      6.11705      6.27007         0.088597      0.026116     -0.043967
Li	      8.41370      8.31689      8.27521        -0.017854      0.005145      0.010839
Li	      6.38570      6.21282      8.31732        -0.043441     -0.016627      0.029542
Ti	      8.57281      8.28514     12.26942         0.096545     -0.047094     -0.574923
Mn	      6.43931     10.34331      8.34547         0.114077     -0.128340     -0.052689
Mn	      6.36903      2.12893      8.34223        -0.005342      0.027768     -0.077881
Mn	      2.10780      4.16559      2.13691        -0.044550      0.016052     -0.132321
Mn	      8.37559      6.26656      6.21663         0.089837     -0.125098      0.079457
Co	      6.42249      6.23099     12.23968        -0.026540     -0.012942     -0.095649
Co	      6.36193      6.21051      4.17217        -0.031063     -0.048491     -0.026124
Ni	      4.30566      8.24498      8.33363         0.045866      0.005786      0.011463
Ni	      4.24737      4.15737      4.21637         0.046689      0.022556      0.035639
O	      2.23669      1.99239      2.15996        -0.085051     -0.081803     -0.059739
O	      4.30980      4.22887      2.02234        -0.005968      0.078684      0.066287
O	      4.08352      2.07208      4.22776        -0.059535     -0.080708      0.086652
O	      6.32242      4.25323      4.02988         0.136659      0.001658     -0.081450
O	      6.57121      2.06489      6.35428         0.081173     -0.035518     -0.037264
O	      8.61035      4.13596      6.36599        -0.024748     -0.034954      0.014279
O	      2.18133      4.04553      4.03576        -0.120515     -0.012988      0.034132
O	      4.39036      6.20113      4.04979         0.050611      0.091814     -0.033734
O	      4.23947      4.00308      6.21310        -0.006755      0.025320      0.171002
O	      6.31029      6.18888      6.08229        -0.102131      0.017013     -0.037261
O	      6.53490      4.03681      8.33046         0.057818      0.033221      0.017456
O	      8.49281      6.21712      8.20219        -0.057102      0.011456     -0.011945
O	      2.08432      6.33156      6.35001        -0.028103      0.178236     -0.008765
O	      4.09517      8.37382      6.28811        -0.211955      0.089712     -0.146693
O	      4.06461      6.21892      8.31532        -0.063808     -0.105821      0.000481
O	      6.29498      8.46171      8.33432         0.120298      0.143614      0.046770
O	      6.39120      6.25277     10.47527        -0.013338      0.015141      0.167624
O	      8.50633      8.29406     10.48991         0.044492     -0.018346      0.607199
