# total energy = -223.49239238 eV
 
CRYSTAL
PRIMVEC
0.017884 6.215325 6.331793 
6.224805 0.011222 6.338480 
4.173952 4.172113 -0.016635 
PRIMCOORD
36 1
Li	      6.29025     10.32127      8.49224         0.007772      0.032569     -0.001374
Li	      4.17258      2.15613      2.14620        -0.028424      0.046373      0.007012
Li	      2.10292      4.16449      2.22836        -0.023951     -0.020160     -0.010939
Li	      2.10915      2.16966      4.28032        -0.008263      0.035252     -0.020653
Li	      4.10886      4.11279      4.20163         0.037345      0.034207      0.009197
Li	      6.17931      4.26954      6.31842         0.018497     -0.017028     -0.047615
Li	      0.13230      4.12769      4.19763        -0.038351     -0.001598      0.004832
Li	      2.14484      4.07625      6.27918        -0.040922      0.070874     -0.028267
Li	      6.21128      6.23545      8.28886         0.007369     -0.019243     -0.016908
Ti	      0.12284      2.12624      2.23921         0.380349      0.137851      0.087124
Mn	      4.17617      4.14091      0.03153         0.000560     -0.118430      0.010630
Mn	      2.09557      2.09977      0.03470         0.011171      0.058919     -0.030270
Mn	      4.12260      6.25425     10.47542         0.446683     -0.191924      0.183106
Mn	      8.30605      6.16639     10.48492        -0.140290     -0.273245      0.097871
Co	      8.20895      6.32752      6.29439         0.078309      0.100656     -0.065128
Co	      4.25163      6.19761      6.35360        -0.005599      0.044071      0.012487
Co	      8.30706      8.30066      8.43234         0.084480     -0.040062     -0.051552
Cu	      6.21633      8.36161     10.44259         0.060684     -0.159400      0.191169
O	      1.98366      2.13690      2.13954        -0.353166     -0.029263      0.075272
O	      4.15337      4.27583      1.91632         0.030063      0.003218      0.060667
O	      4.25935      2.13453      4.27661        -0.230913      0.094747     -0.003893
O	      6.38196      4.07729      4.18345        -0.394969      0.171168      0.039009
O	      6.32317      2.01057      6.40415        -0.004090      0.016722      0.093014
O	      8.32320      4.10795      6.17325         0.020429     -0.061916     -0.053103
O	      2.08223      4.31054      4.21045         0.034007      0.025619     -0.015486
O	      4.14766      6.18635      4.11541         0.033500      0.015627     -0.154902
O	      4.15431      4.19577      6.52990        -0.014643      0.009703      0.102936
O	      6.21330      6.26684      6.29075        -0.091221      0.013343      0.006104
O	      6.10684      4.01694      8.46003        -0.064975     -0.090678     -0.034218
O	      8.36605      6.31964      8.40255        -0.040309      0.039034     -0.028732
O	      2.14276      6.33184      6.21949         0.060314      0.018021      0.078652
O	      4.03975      8.31766      6.36500         0.036630      0.029286     -0.008998
O	      4.20174      6.07345      8.54543        -0.039302     -0.067217     -0.156219
O	      6.39786      8.29327      8.48716         0.022190     -0.079776     -0.109940
O	      6.19089      6.24653     10.72611        -0.036970      0.051647     -0.025311
O	      8.23619      8.15722     10.42969         0.186005      0.121034     -0.195575
