# total energy = -223.29064152 eV
 
CRYSTAL
PRIMVEC
0.007427 6.322796 6.304859 
6.094275 0.024213 6.287690 
4.053018 4.194049 0.026242 
PRIMCOORD
36 1
Li	      4.09867     10.46350      6.32376         0.039058     -0.022523     -0.018929
Li	      4.07873      8.36935      8.39862        -0.088474     -0.151357     -0.024130
Li	      4.03688      6.37257     10.37880         0.000550      0.019729     -0.122888
Li	      4.06799      6.34563      2.20599         0.001975      0.029133      0.025024
Li	      4.11228      4.17822      4.22335         0.033364     -0.007220      0.003190
Li	      6.00201      4.25848      6.28212        -0.010600      0.010754      0.030072
Li	      4.08695      6.32027      6.40800        -0.023983      0.017332      0.138008
Li	      4.13471      4.32365      8.34361        -0.005408      0.134370     -0.012715
Li	      5.98902      6.29672      8.40811        -0.107986     -0.068226     -0.014092
Ti	      8.19306      4.23032      8.33176         0.161458      0.212462     -0.176929
Mn	      2.05410      8.37868      6.36052         0.053392     -0.087827     -0.034468
Mn	      6.03651      8.46122     10.40801        -0.008319     -0.045550      0.181803
Mn	      4.04555      2.16075      6.29706        -0.080963      0.090370     -0.055868
Mn	      2.08693      6.31264      4.20798         0.031738      0.011835      0.063058
Co	      6.10938     10.50189      8.44125        -0.103554     -0.378781      0.045904
Co	      6.11734      4.26536     10.48907         0.035528     -0.006840     -0.079387
Co	      6.06810      8.40049      6.38506         0.136712     -0.015751      0.048980
Ni	      6.05018      6.24387      4.23569        -0.038263     -0.026769      0.028224
O	      2.02351      2.22319      2.11829         0.039657     -0.449994     -0.016091
O	      4.03505      4.21252      2.15416        -0.277327     -0.003461     -0.056229
O	      4.01637      2.08305      4.36544         0.142664      0.032882      0.034642
O	      6.08720      4.20929      4.08915        -0.114330     -0.129882     -0.237488
O	      6.01666      2.15489      6.07008        -0.021442      0.041355     -0.083237
O	      8.08567      4.31254      6.41999         0.028000      0.087314      0.265302
O	      1.97039      4.28367      4.24784         0.036201      0.042012     -0.056723
O	      4.01644      6.46672      4.23796        -0.050203      0.100366      0.003173
O	      3.95576      4.07891      6.32424        -0.069226     -0.149911     -0.023646
O	      6.14356      6.43148      6.28622         0.125080      0.025666      0.126885
O	      6.22810      4.24870      8.54076         0.164155      0.033618      0.101115
O	      8.17848      6.22960      8.29184         0.026910     -0.149110     -0.108991
O	      2.05839      6.16941      6.43213        -0.134376     -0.009985      0.230525
O	      4.14810      8.42628      6.17002         0.024327      0.025636     -0.025132
O	      3.90714      6.35285      8.40821        -0.061934     -0.071669      0.003436
O	      6.05186      8.42238      8.46487         0.119711      0.860653     -0.119906
O	      6.25324      6.28280     10.48134        -0.053613     -0.014712     -0.020572
O	      8.19519      8.30837     10.54697         0.049521      0.014080     -0.041920
