# total energy = -225.93658119 eV
 
CRYSTAL
PRIMVEC
0.000825 6.221641 6.254600 
6.181575 -0.013849 6.268934 
4.117491 4.153908 -0.005458 
PRIMCOORD
36 1
Li	      0.02379      0.03346      0.01980        -0.053300      0.011087     -0.009408
Li	      2.02887      6.23760      8.26929         0.010398     -0.009001      0.024728
Li	      6.22036      2.08472      8.32949         0.005627      0.029259     -0.016174
Li	      2.10852      4.08375      1.99705         0.035030     -0.046637     -0.038209
Li	      6.16169      6.18229      4.24956         0.016254     -0.039916     -0.028348
Li	      6.20754      4.18998      6.26501         0.022876     -0.039046      0.004333
Li	      6.18708      8.23284      6.25358         0.045232     -0.026714      0.026485
Li	      4.12307      6.25295      6.25542        -0.007772     -0.028563      0.012886
Li	      6.17048      6.20296      8.25997        -0.019087      0.019933      0.043811
Ti	      0.16318      4.14494      4.17502         0.283073      0.004663     -0.260794
Mn	      4.12539      8.27226      8.28401         0.075781     -0.089850      0.102109
Mn	      4.15787      4.19134      4.17319        -0.029106     -0.030040      0.006453
Mn	      8.19834      6.18514      6.29865        -0.073781     -0.181107     -0.048781
Mn	      4.07258      4.21054      8.30738        -0.153071      0.072230      0.003894
Co	      8.18202      4.14333      4.18519        -0.035843     -0.008687      0.102658
Co	      2.01296      2.01566      0.03458         0.225454      0.252457     -0.083738
Co	      6.15818      2.04953      4.22288        -0.110783     -0.027077      0.007253
Co	      2.05261      6.21983      4.20580        -0.014940      0.074820      0.060333
O	      2.19142      2.05762      1.96184        -0.113930     -0.097456     -0.496999
O	      4.11782      4.00146      2.25482         0.053192      0.090814     -0.077739
O	      4.22791      2.03751      4.28693         0.020939      0.066399      0.114380
O	      6.15889      3.96771      4.19423        -0.063520      0.019540      0.024098
O	      6.10814      2.06506      6.16776         0.760859     -0.021616      0.013923
O	      8.24487      4.20967      6.26144        -0.022312     -0.084562      0.002775
O	      2.02655      4.11979      4.12610        -0.397622      0.003518      0.036211
O	      4.10943      6.34270      4.14640         0.059961      0.196545      0.026808
O	      4.10789      4.04556      6.16248        -0.053498     -0.127351     -0.094369
O	      6.34957      6.20308      6.23479         0.104195      0.047519      0.034143
O	      5.99923      4.17324      8.53138         0.137378      0.016470      0.144531
O	      8.24922      6.38228      8.24691        -0.039434     -0.050288     -0.083191
O	      2.05588      6.34827      6.20366        -0.006070      0.469454     -0.082841
O	      4.10713      8.34200      6.11641        -0.778587     -0.195936      0.094742
O	      4.10592      6.20803      8.36988         0.031266      0.000440     -0.070262
O	      6.16315      8.27594      8.49377         0.015005      0.005378      0.006263
O	      6.18422      6.22304     10.43217         0.041700     -0.094703      0.001346
O	      8.11356      8.30367     10.55880         0.028434     -0.181975      0.496690
