# total energy = -216.37063243 eV
 
CRYSTAL
PRIMVEC
0.009856 6.100304 6.340608 
6.222399 0.002176 6.348400 
4.147496 4.071252 0.002361 
PRIMCOORD
36 1
Li	      0.03994      6.11505      6.33994        -0.015122     -0.000451     -0.031733
Li	      2.07633      6.11246      8.41593         0.014553     -0.010618      0.019987
Li	      4.18376      8.10783      8.51325         0.028203     -0.043470      0.055362
Li	      4.14716      0.04232      4.21237        -0.008454      0.003758     -0.076349
Li	      4.20086      4.05012      4.22879        -0.010410      0.000039     -0.011248
Li	      8.28849      6.05098      6.31535         0.016821     -0.008524     -0.077092
Li	      6.27031      4.07112      6.24992        -0.036426     -0.015650     -0.080281
Li	      2.04534      6.10355      4.32707        -0.003859     -0.009000      0.066547
Li	      6.21992      6.11719      8.49798        -0.023239      0.042253      0.059707
Ti	      4.10907      4.15195      8.38405        -0.252711      0.393237     -0.212056
Mn	      6.14130      2.02463      4.28361        -0.025843      0.027957     -0.270958
Mn	      8.33669      4.11867      8.42329        -0.069440     -0.179925     -0.066826
Mn	      6.27950      6.04612      4.26641         0.165579     -0.099731     -0.025088
Mn	      6.21710      4.13276     10.60247        -0.042547      0.160158      0.117412
Cu	     10.34885      6.06802      8.40278         0.137579     -0.008148     -0.082067
Ni	      2.06397      8.09932      6.34510         0.017488      0.011361     -0.057917
Ni	      2.06398      4.11298      6.37007        -0.022850     -0.032488      0.059867
Ni	      4.15084      6.09857      6.34140         0.060231     -0.009577      0.078235
O	      2.02207      2.14963      2.20694        -0.008244      0.001901      0.120089
O	      3.96586      4.12455      2.13522         0.023180     -0.045351     -0.024603
O	      4.06233      2.03241      4.20964        -0.129046      0.000136     -0.015671
O	      6.20511      4.14055      4.19853         0.031364      0.076618     -0.008072
O	      6.25307      2.03354      6.14541        -0.147690     -0.005733      0.491737
O	      8.25228      4.00604      6.59363         0.022703      0.204651      0.113926
O	      1.97477      4.01556      4.15687         0.092946      0.064795     -0.134551
O	      4.29583      6.21941      4.29356        -0.123014     -0.115551     -0.193647
O	      4.12979      4.03753      6.50660         0.165576     -0.110128      0.307909
O	      6.21238      6.15863      6.16091         0.105415     -0.170809      0.000784
O	      6.23577      4.01964      8.60716         0.012500      0.077097      0.041442
O	      8.35880      6.03863      8.45671        -0.126438      0.090003      0.005108
O	      2.14291      6.09763      6.37655        -0.129937      0.029665      0.029157
O	      4.15646      8.15290      6.17140        -0.016967      0.127354     -0.050302
O	      4.20499      5.99293      8.41014         0.022489     -0.347779      0.115398
O	      6.33465      8.11212      8.57625         0.231584     -0.000821     -0.130291
O	      6.22086      6.03932     10.55160         0.016956     -0.124515     -0.005628
O	      8.41279      8.12595     10.50478         0.027069      0.027282     -0.128288
