# total energy = -215.15637144 eV
 
CRYSTAL
PRIMVEC
-0.021676 6.209182 6.290448 
6.235908 -0.004849 6.273676 
4.165149 4.135895 -0.010953 
PRIMCOORD
36 1
Li	      2.12202      8.22191      6.30034         0.011506      0.028505      0.066709
Li	      2.13067      6.16795      8.24671         0.004310     -0.000627      0.057609
Li	      4.17063      8.17365      8.25922        -0.020320     -0.050326      0.015356
Li	      4.21743      6.17411     10.42132         0.014904      0.012976     -0.067624
Li	      8.31526      6.13654      6.29293        -0.005203      0.010948     -0.024869
Li	      8.23468      6.26910     10.58617         0.002405      0.000844      0.023749
Li	      6.12293      8.37149      6.36307        -0.006049     -0.028172      0.000613
Li	      4.07790      6.28387      6.36707         0.068950     -0.009474     -0.025131
Li	      6.16076      6.26977      8.37488         0.005321     -0.042291     -0.044486
Ti	      4.09674      4.12129      4.30115        -0.107615     -0.068497      0.057577
Mn	     10.36805      6.20021      8.33494         0.070395      0.011853      0.118880
Mn	      6.25404      6.17015      4.17646        -0.011819     -0.024451      0.035843
Mn	      6.33376      4.13991      6.25015        -0.142317     -0.024333     -0.007921
Mn	      8.25420      8.31948      8.38707         0.048349     -0.035638     -0.077629
Cu	      0.06316      6.16126      6.26224        -0.229438      0.100372      0.299713
Cu	      6.23377      8.21427     10.44184        -0.049647      0.003944     -0.102892
Ni	      8.29214      4.19221      8.35365        -0.027834      0.009479      0.074732
Ni	      4.11640      8.30911      4.27576         0.078377     -0.020485     -0.034486
O	      1.98375      6.23042      6.29474         0.010320      0.059016      0.019504
O	      4.12917      8.35334      6.24888        -0.038457     -0.146127      0.224480
O	      6.21009      6.21959     10.58834        -0.019306      0.056455     -0.246345
O	      1.92592      2.13210      2.26086         0.018122     -0.104125     -0.098439
O	      4.09438      4.28028      2.14008         0.106560     -0.049223      0.078482
O	      4.12491      2.19131      4.08649        -0.014995      0.102735     -0.005341
O	      6.09764      4.09837      4.12649         0.035035      0.011090      0.044669
O	      6.25346      2.12690      6.25792         0.009979     -0.017099     -0.027646
O	      8.22247      4.13079      6.34120         0.308897     -0.032794     -0.255108
O	      2.15397      4.10776      4.18706         0.161398      0.084879      0.093530
O	      4.20811      6.13021      4.20067        -0.037955     -0.155771      0.020116
O	      4.26957      4.12461      6.23464        -0.060400     -0.012201     -0.071285
O	      6.28926      6.07653      6.07391         0.039269      0.047197      0.046891
O	      6.15578      4.05255      8.44387        -0.077191      0.061109     -0.165036
O	      8.43980      6.29081      8.33720        -0.071153      0.106255      0.013244
O	      4.17363      6.02753      8.33802        -0.033377      0.025640      0.023771
O	      6.40236      8.20917      8.38790         0.010870      0.045316     -0.060706
O	      8.31273      8.27693     10.26873        -0.051891      0.043023     -0.000520
