# total energy = -215.90892413 eV
 
CRYSTAL
PRIMVEC
0.032177 6.511728 6.221143 
6.103831 0.044148 6.209099 
4.088295 4.352365 0.010579 
PRIMCOORD
36 1
Li	      6.02291      0.16038      6.20065        -0.002647      0.050001      0.011398
Li	      4.08008      2.21924      2.16377        -0.020794      0.013497      0.009951
Li	      8.15057      4.45527      4.25231        -0.015624      0.016211      0.077279
Li	      5.99694      2.24312      4.23736         0.006334      0.027763      0.047262
Li	      6.04712      2.23194      8.18289         0.029487     -0.015175     -0.008236
Li	      2.15013      4.34368      2.00027         0.063858     -0.015522     -0.036654
Li	      4.08559      4.21737      4.21035        -0.007315     -0.061364     -0.155803
Li	      4.14344      2.25625      6.16550         0.039245      0.029386     -0.070436
Li	      6.14908      4.29064      6.17156         0.064386     -0.021573     -0.043981
Ti	      5.97518      4.37193      2.08690        -0.692827      0.046192      0.089546
Mn	      8.09555      2.34526      6.22890        -0.023290      0.014768      0.353671
Mn	      6.19559      6.48679      4.17452         0.132941     -0.066582     -0.120492
Mn	      4.11846      8.67654      4.16684         0.021604      0.161142      0.070273
Mn	      6.13655      6.48820      8.24836         0.121102      0.246528     -0.204522
Cu	      2.08514      6.52835      4.14614         0.047471     -0.105315      0.110437
Cu	      2.07334      4.34533      6.21170        -0.212242      0.017149     -0.007182
Cu	      4.09274      4.36776      8.26102         0.070242     -0.040538     -0.018422
Ni	      4.10740      6.46352      6.22301        -0.012064      0.159880     -0.150355
O	      3.97051      4.45080      6.11825         0.128801     -0.110938      0.230281
O	      8.04453      6.62734      8.37057         0.166254     -0.025631     -0.128067
O	      2.07405      2.02923      2.08124        -0.014113      0.028511      0.028224
O	      4.18121      4.34185      2.07439         0.513213     -0.033868      0.020293
O	      3.94630      2.17168      4.15996         0.077917     -0.011267      0.005910
O	      6.11374      4.56244      4.00553         0.016143     -0.240887     -0.076308
O	      6.24881      2.25203      6.17097        -0.239145      0.031007      0.042862
O	      8.16687      4.16895      6.27180         0.017747      0.117666      0.056210
O	      1.95241      4.10109      4.15967         0.041062      0.089463     -0.068947
O	      4.11851      6.71970      4.15486        -0.091384      0.046308     -0.128777
O	      6.13989      6.39710      6.18195         0.082050     -0.100459     -0.006721
O	      6.05333      4.40188      8.43893        -0.081578     -0.299071      0.091357
O	      2.08247      6.76819      6.25360        -0.010625      0.061580      0.073507
O	      4.12174      8.65434      6.11110         0.155811      0.015461     -0.007219
O	      4.20969      6.48217      8.26623        -0.200458      0.002990      0.112569
O	      6.19879      8.85355      8.28120         0.038501      0.091546      0.030787
O	      6.25423      6.33058     10.28052        -0.210963     -0.135297      0.198670
O	      8.31388      8.83251     10.55328         0.000901      0.016437     -0.428364
