# total energy = -215.11490574 eV
 
CRYSTAL
PRIMVEC
-0.027609 6.287535 6.066090 
6.345928 -0.026719 6.065202 
4.214312 4.174791 -0.001569 
PRIMCOORD
36 1
Li	      6.28399      0.06136      5.97938        -0.033191      0.079028      0.029976
Li	      8.36291      2.11452      5.95998        -0.098951      0.004160      0.128740
Li	      6.34234      2.06934      4.15178        -0.027291      0.001394      0.067878
Li	      6.36722      6.23843      4.07668         0.001916     -0.030436      0.016733
Li	      4.20934      4.15075      4.09302        -0.005758      0.005713     -0.041520
Li	      4.32464      2.03812      5.96761         0.085268     -0.033863      0.037999
Li	      6.36908      4.07114      5.98583         0.035081     -0.033105      0.028735
Li	     10.48831      8.36103     10.14593         0.006523      0.017015      0.007268
Li	      2.08943      6.30587      4.08210         0.018851     -0.020599      0.018561
Ti	      2.12763      4.14203      2.03866         0.014540     -0.100377     -0.083273
Mn	      6.33108      4.14315      2.06946        -0.160540      0.214108     -0.235365
Mn	      6.31038      2.09977      8.07599        -0.116408      0.069184      0.119518
Mn	      4.20622      6.27062      5.96454         0.030072      0.079509     -0.186644
Mn	      6.32795      6.27225      8.13667         0.127387     -0.167363     -0.270413
Cu	      4.22764      2.08379      2.07039        -0.161466      0.182025     -0.263698
Cu	      8.44250      4.15517      4.13325         0.004282      0.077592      0.133488
Cu	      2.10040      4.17904      5.96656        -0.082313     -0.020953     -0.329597
Cu	      8.43264      8.33734      8.13629         0.112275     -0.180165     -0.174976
O	      4.14515      4.31166      6.11531         0.103602      0.123090      0.214061
O	      4.27264      8.23354      6.14300        -0.134706     -0.165709     -0.019586
O	      8.42428      8.48211     10.03768        -0.055184      0.144725     -0.117106
O	      1.97167      2.10710      2.02492         0.315284      0.072260      0.029515
O	      4.18117      4.29631      2.03562        -0.077634     -0.389196      0.058788
O	      4.21090      1.94979      3.96246         0.050361     -0.165117      0.236240
O	      6.41915      4.14490      3.92317         0.106912     -0.030453      0.153391
O	      6.30890      2.08811      6.23459         0.027201     -0.004153     -0.245709
O	      8.47883      4.13799      6.23410        -0.000186     -0.010776      0.096938
O	      2.12411      4.16543      3.95814         0.025384     -0.008466      0.171570
O	      4.18278      6.28658      4.06248        -0.030163      0.007004      0.056747
O	      6.17334      6.31835      6.14614        -0.057001     -0.243478      0.085480
O	      6.44527      4.13743      8.08586         0.210982      0.309342      0.056708
O	      8.45555      6.17529      8.09847        -0.177721     -0.069129      0.045702
O	      2.22955      6.21802      6.14300         0.056930      0.256090      0.097639
O	      4.21840      6.25766      7.92034        -0.002949      0.005662      0.027181
O	      6.29560      8.35786      8.04730        -0.013062      0.001351     -0.135409
O	      6.24229      6.27716      9.99449        -0.098324      0.024086      0.184439
