# total energy = -223.04208254 eV
 
CRYSTAL
PRIMVEC
0.029749 6.314798 6.317588 
6.187630 0.034769 6.312447 
4.127473 4.209331 0.021408 
PRIMCOORD
36 1
Li	      8.31113      8.48860     12.51768        -0.017538      0.012579     -0.049349
Li	      4.17124      6.32868     10.50868        -0.007358     -0.011566     -0.052665
Li	      4.12307      6.32434      2.21259         0.039851      0.014237      0.047941
Li	      4.15230      4.24095      4.37107         0.027426      0.002609      0.055926
Li	      4.12323      2.19972      6.23246        -0.015394      0.008324      0.007238
Li	      4.14644      8.38701      4.38136        -0.008933     -0.020766      0.028490
Li	      6.22584      8.36912      6.29377         0.024218     -0.034278      0.000592
Li	      4.20414      6.28026      6.30529         0.023883     -0.043726      0.021479
Li	      6.16453      6.32672      8.37940        -0.043833     -0.000782     -0.043640
Ti	      8.10925      4.32550      8.42418        -0.638801      0.106805      0.080833
Mn	      2.08418      6.31956      8.29530        -0.014051     -0.036811     -0.004181
Mn	      6.14721      2.12799      4.20475         0.095395      0.011608     -0.146949
Mn	      6.16912      6.33034      4.29872         0.010436     -0.043813      0.211558
Mn	      2.18429      6.29019      4.29767         0.019815     -0.003117      0.122702
Fe	      4.17016      8.36036      8.31082         0.101082     -0.055310      0.189195
Co	      4.17327      4.23045      8.41093         0.193910      0.045700     -0.428909
Cu	      6.15589      0.04575      6.28311        -0.093194      0.007618     -0.050512
Cu	      6.15962      4.23363      6.31928         0.068441     -0.097561      0.028168
O	      4.24715      4.18079      6.51307        -0.002777     -0.040572     -0.709043
O	      2.10697      2.25010      2.27653        -0.039756      0.142464     -0.092535
O	      4.17636      4.19648      1.95862        -0.144070      0.001033      0.137476
O	      4.17173      2.11092      4.10648         0.007357      0.028677     -0.009888
O	      6.16743      4.12479      3.97376        -0.016354     -0.126493     -0.007092
O	      6.18607      2.26277      6.11803        -0.045427      0.018994      0.015159
O	      8.18364      4.26115      6.48932         0.044117      0.013960      0.086000
O	      2.14656      4.26852      4.17352        -0.021565      0.125379     -0.123591
O	      4.17679      6.31121      4.26364         0.204760     -0.025003      0.024720
O	      6.23096      6.21560      6.19988         0.015995      0.026187     -0.052815
O	      6.26970      4.28237      8.57197         1.039679      0.030489      0.086073
O	      8.31046      6.25336      8.64687         0.004861     -0.403684     -0.079962
O	      2.08279      6.33946      6.27930         0.007858      0.025559     -0.015638
O	      4.13841      8.45587      6.41717        -0.014587      0.087777     -0.212379
O	      4.01587      6.34625      8.38146         0.031060      0.265835      0.005153
O	      6.18149      8.33674      8.54730        -0.470780      0.006083      0.112410
O	      6.24038      6.49101     10.66208        -0.153289      0.141505     -0.068927
O	      8.16566      8.37372     10.40680        -0.212439     -0.179941      0.886958
