# total energy = -220.79335893 eV
 
CRYSTAL
PRIMVEC
0.012552 6.303844 6.266241 
6.167336 0.013540 6.265253 
4.135763 4.225438 -0.014792 
PRIMCOORD
36 1
Li	      2.08694      2.06326      0.06276         0.028825     -0.068147      0.088789
Li	      2.02707      0.02379      2.06049        -0.018949      0.033628     -0.073661
Li	      4.10818      2.13624      2.09010        -0.021100      0.010413      0.013059
Li	      6.18529      8.44750     10.36381         0.012077     -0.032999     -0.098421
Li	      2.10053      4.15222      2.15174         0.033525     -0.063895      0.078702
Li	      2.04562      2.15563      4.11850        -0.026312      0.090921     -0.108555
Li	      4.11602      4.19704      4.13494        -0.036923     -0.033458     -0.073910
Li	      2.08078      6.26067      4.19563        -0.042388     -0.076195      0.028988
Li	      6.20740      6.39495      8.32225         0.023824      0.099691      0.019010
Ti	      4.00120      0.06886      4.09105         0.171551      0.076898     -0.142882
Mn	      0.07756      6.28620      6.30059        -0.012921      0.014790     -0.100473
Mn	      0.07124      2.06066      2.11379        -0.095602      0.016662     -0.149070
Mn	      0.06714      4.18896      4.19762        -0.184227      0.262545      0.019081
Mn	      8.19594      8.41038      8.35408         0.005607      0.028057      0.110015
Fe	      8.16094      6.35357      6.22225         0.223825     -0.038237     -0.068747
Cu	      6.19509      4.22320      6.24532         0.054962     -0.063992      0.070076
Ni	      2.05280      4.21869      6.26122        -0.046682      0.048569      0.067051
Ni	      4.10225      6.34288      6.27240        -0.038602      0.059100      0.022652
O	      1.89412      2.12254      2.07975        -0.002367      0.002047      0.047773
O	      4.13311      4.36547      1.95994         0.002397      0.021331      0.165319
O	      4.15811      1.99208      4.22218        -0.044913     -0.101726     -0.050588
O	      6.30700      4.18264      4.23816        -0.034831     -0.005914     -0.093616
O	      6.12869      2.07625      6.39916         0.003574      0.166411     -0.043610
O	      8.32350      4.30879      6.16987        -0.005438     -0.000279      0.032689
O	      1.94024      4.21784      4.19638         0.089825     -0.062033     -0.087570
O	      4.11866      6.42929      4.03962         0.000746     -0.048823      0.052025
O	      4.12880      4.21263      6.24662         0.036598     -0.036643     -0.109822
O	      6.20841      6.33770      6.28041        -0.129770     -0.138864     -0.044545
O	      6.07341      4.09132      8.30727         0.028586     -0.022059      0.029600
O	      8.33504      6.39756      8.25794        -0.026445     -0.012413      0.019608
O	      2.04233      6.28111      6.25060        -0.013300      0.036788      0.044273
O	      4.14416      8.41235      6.29294        -0.070943     -0.067825      0.043964
O	      4.15186      6.26522      8.43024         0.002400     -0.022039      0.181244
O	      6.34123      8.40147      8.33559         0.058512      0.028292      0.067760
O	      6.14034      6.22466     10.59477         0.024358     -0.131870      0.051057
O	      8.37676      8.55915     10.41566         0.050520      0.031271     -0.007265
