# total energy = -89.97218672 eV
 
CRYSTAL
PRIMVEC
2.146747 4.336983 2.146389 
4.386057 -4.397225 0.028236 
4.357647 -0.000145 -4.356615 
PRIMCOORD
16 1
Li	      2.40998     -2.15578      0.08180         0.301986     -0.786494     -0.143198
Li	      4.57202      0.03062      0.03624         0.785690     -0.007785      0.446240
Li	      4.62877     -2.24539     -2.27446         0.271369      0.131087      0.327669
Li	      6.82145     -0.09602     -2.28952         0.081437     -0.468144      0.519208
Mn	      0.53215     -0.00322     -0.09801       -10.632809     -0.066427     -0.264187
Mn	      2.50110      2.05662     -0.02741        -0.565518      3.413678     -1.187908
Ni	      2.62796     -0.00344     -2.19366        -1.302113     -0.115586     -1.663045
Ni	      4.76290      2.05640     -2.28872        -1.046623      1.286074      0.322975
O	      6.85828     -0.19238      0.10919         0.617952     -0.528902     -0.239935
O	      6.88753     -2.33666     -2.10310         0.212203      0.091965      1.202508
O	      4.38568      2.27270     -0.02943         0.513748     -0.903184     -0.470223
O	      4.56244     -0.00448     -2.45928         1.708944     -0.170058      0.333090
O	      9.31885     -0.06014     -2.27987        -0.226715     -0.681062      0.342117
O	      4.70155     -2.46920      0.01166         1.643263      0.254270     -0.261164
O	      6.84672      2.40500     -2.41795         0.206804     -1.414529      0.269716
O	      2.17328      0.12843      0.00039         7.430381     -0.034903      0.466137
