# total energy = -219.66754699 eV
 
CRYSTAL
PRIMVEC
0.000966 6.421090 6.195747 
6.203227 0.002267 6.193494 
4.141981 4.285637 -0.004216 
PRIMCOORD
36 1
Li	      2.04222      2.17586      0.08441        -0.013854      0.023583     -0.059074
Li	      2.03581      0.07222      2.07733        -0.024232      0.022455      0.018350
Li	      6.20934      2.36626      8.36892         0.011922      0.118729      0.003852
Li	      1.97579      4.24802      2.20638        -0.030628      0.000736     -0.011757
Li	      1.99869      2.33019      4.04620        -0.044667      0.067731     -0.009176
Li	      0.18211      4.23387      3.92116         0.018928     -0.000552     -0.060704
Li	      2.07312      6.26476      3.97827        -0.032215     -0.010909     -0.036874
Li	      8.43907      8.44956      8.33542         0.101676     -0.070867      0.057317
Li	      6.27215      6.26749      8.28120         0.051348     -0.058721      0.058659
Ti	      4.08432      6.37418      6.09619        -0.171134      0.025729     -0.241373
Mn	      0.08168      6.45449      6.21536         0.016094     -0.046449     -0.037614
Mn	      4.06432      2.11195      2.04463        -0.214151     -0.110973     -0.097658
Mn	      4.10387      6.41156     10.24859         0.083778     -0.129230      0.050683
Mn	      6.22737      8.59200     10.27709         0.241565     -0.085378      0.049924
Fe	      8.21598      6.45188      6.39201         0.034459     -0.056038     -0.218213
Ni	      6.23315      4.27581      6.28905         0.034027     -0.045928     -0.025956
Ni	      6.21067      8.53355      6.17145        -0.111175      0.031077      0.133527
Ni	      4.07042      4.35561      4.04715         0.136207     -0.060149     -0.108529
O	      6.22923      4.29352      8.23133        -0.007281      0.029745      0.239101
O	      2.21371      2.11065      2.06540         0.158642     -0.028446      0.088646
O	      4.13546      4.05356      1.94069        -0.032814      0.079439      0.000887
O	      4.22184      2.02789      4.05276        -0.094637      0.096279     -0.180605
O	      6.07560      4.09002      4.16058         0.163021     -0.020280     -0.118201
O	      6.12325      2.19640      6.04900        -0.013094     -0.011388      0.010308
O	      8.36134      4.38986      6.03026         0.030705      0.028302     -0.037035
O	      2.14126      4.28307      4.19156        -0.266166     -0.051215     -0.102798
O	      4.13027      6.44758      4.26188         0.037165     -0.125960      0.266757
O	      4.11928      4.34644      6.19116         0.033482      0.128430      0.092413
O	      6.15878      6.40613      6.17255        -0.008519     -0.007989     -0.011534
O	      8.31768      6.43309      8.19212         0.030921      0.014218      0.121688
O	      2.12392      6.36557      6.22465         0.139568      0.013805      0.062012
O	      4.14874      8.41125      6.30159        -0.067748     -0.016854      0.251132
O	      4.12341      6.57066      8.26514        -0.024311      0.035717      0.070128
O	      6.06135      8.53063      8.35499        -0.007727      0.005325      0.065504
O	      6.29159      6.62752     10.47892         0.022654      0.072885     -0.191637
O	      8.11492      8.77579     10.30442        -0.181809      0.143140     -0.092151
