# total energy = -216.91920206 eV
 
CRYSTAL
PRIMVEC
0.007509 6.238864 6.273182 
6.209497 0.013514 6.267239 
4.132306 4.147931 0.016328 
PRIMCOORD
36 1
Li	      6.21852      6.21476     12.39439         0.004459     -0.009693     -0.077214
Li	      4.18290      8.29846      8.29942        -0.017514      0.027432     -0.015552
Li	      4.29782      6.18685     10.40707        -0.073947     -0.011490      0.020967
Li	      6.26765      8.14521     10.44548        -0.014381      0.007918      0.024448
Li	     10.25718      6.17841      8.39912         0.007143     -0.004474      0.021008
Li	      8.35663      4.29690      8.37795         0.087827      0.035596      0.020276
Li	      8.16302      6.28690     10.35261         0.038500     -0.040441     -0.024027
Li	      6.13184      8.32832      6.32481        -0.044305      0.047374     -0.021191
Li	      4.12208      6.30347      6.32091        -0.022410     -0.015360     -0.019158
Ti	      6.22731      4.15237      6.47994         0.072750     -0.000591      0.211734
Mn	      2.11066      8.28570      6.25715         0.005604     -0.022395      0.025902
Mn	      2.10284      6.20903      8.32854        -0.058782      0.072957     -0.035854
Mn	      2.07460      2.13859      4.14413         0.019374      0.049030     -0.038944
Mn	      4.13033      4.18965      4.15861        -0.049622      0.033729      0.008665
Ni	      6.20377      4.24436     10.47928         0.122612     -0.216509     -0.039901
Ni	      8.31669      6.20100      6.31596         0.058672     -0.070738     -0.077347
Ni	      8.22053      8.28997      8.47285         0.023688      0.030362     -0.002477
Ni	      6.20204      6.32104      8.42235        -0.131580      0.054608     -0.051313
O	      2.09299      1.93946      1.98012        -0.020501     -0.042319     -0.033553
O	      4.24208      4.14663      2.26535         0.035266      0.019710      0.043891
O	      4.01930      2.23275      4.23086         0.054242      0.042166     -0.074772
O	      6.10224      4.28039      4.12073         0.021005     -0.080771      0.030020
O	      6.28936      2.20714      6.24060         0.109925      0.127383      0.039362
O	      8.17019      4.07032      6.28324        -0.117792     -0.087851      0.024283
O	      2.17258      4.09474      4.17516         0.092940      0.038592      0.027926
O	      4.26847      6.15804      4.18654        -0.017546     -0.047122      0.010448
O	      4.26090      4.12928      6.14190         0.086695      0.127104     -0.028925
O	      6.24036      6.10879      6.31674        -0.099229     -0.151605     -0.021949
O	      6.17238      4.17171      8.34249         0.122511     -0.066286     -0.403929
O	      8.24143      6.29602      8.29931         0.093202     -0.133378      0.130837
O	      2.03697      6.35080      6.43474         0.012089     -0.005465      0.027518
O	      3.99787      8.31969      6.24268        -0.037891     -0.019918      0.147306
O	      4.02181      6.17438      8.39561        -0.073653      0.112871     -0.029130
O	      6.21399      8.43431      8.35131        -0.137472      0.091080      0.019913
O	      6.21221      6.21967     10.39107        -0.003524      0.103015      0.121484
O	      8.32147      8.27011     10.58833        -0.148355      0.005477      0.039248
