# total energy = -205.45335294 eV
 
CRYSTAL
PRIMVEC
0.039222 6.218261 6.391848 
6.220914 -0.024387 6.456256 
4.099046 4.139562 0.032040 
PRIMCOORD
36 1
Li	      2.12805      2.02217      0.20306        -0.021901      0.014825      0.017847
Li	      3.99892      2.12065      2.05019         0.031230     -0.051262     -0.019970
Li	      4.22353      6.12982      2.26533        -0.080039      0.069514      0.156019
Li	      2.09643      4.09071      2.22552        -0.016078     -0.045179      0.148490
Li	      2.02474      2.17479      4.19226        -0.015706      0.183487     -0.065225
Li	      3.96295      4.23693      4.19791        -0.192218      0.021418     -0.027156
Li	      6.28003      4.17709      6.46911         0.027169      0.023783      0.032306
Li	      2.15506      6.06428      4.39512        -0.014129     -0.136677      0.031389
Li	      2.04389      4.13584      6.19230         0.000883     -0.061441     -0.257043
Ti	      4.25842      4.13969      8.46919         0.299020     -0.360651     -0.091013
Mn	      8.19390      6.18035      6.48195        -0.075978      0.072029      0.088003
V	      6.21038      2.14696      4.40607         0.008709     -0.128901      0.110174
Co	      4.08555      6.24051      6.33326         0.441575     -0.389945      0.099578
Cu	      4.18560     10.27683      6.55406         0.072196     -0.101505     -0.463872
Cu	      8.25921      4.13693      4.38871        -0.066807      0.015276      0.073304
Ni	      2.02587      0.03709      2.09236        -0.355934      0.767428     -0.050899
Ni	      0.12158      4.08106      4.29321         0.046448      0.007850     -0.126641
Ni	      6.19532      6.22702      8.55720         0.119186      0.014505      0.096891
O	      2.05729      4.14969      4.18699         0.215556      0.090838      0.060752
O	      2.05455      1.93757      2.19228         0.079503     -0.155044     -0.039591
O	      4.18858      4.12863      2.08492         0.301778     -0.210725      0.188509
O	      4.26582      2.03595      4.46699         0.081732      0.049888      0.006825
O	      6.27121      3.96420      4.28265        -0.139018      0.176387     -0.171277
O	      6.15251      2.12582      6.22899         0.136887     -0.009073      0.006118
O	      8.33455      4.28885      6.56798        -0.031881      0.028100     -0.010147
O	      4.12192      6.21334      4.49411         0.009130     -0.090346     -0.308200
O	      4.15289      4.08583      6.54955        -0.010092     -0.262775      0.264945
O	      6.27696      6.17989      6.50719         0.303567      0.007363     -0.141986
O	      6.10400      4.15638      8.66097        -0.438234     -0.038466     -0.076776
O	      8.24701      6.30966      8.42032         0.098628      0.291163     -0.139505
O	      2.14079      6.19939      6.45046        -0.989818     -0.194591      0.249827
O	      4.13689      8.12137      6.34152         0.037325      0.706276      0.263699
O	      4.12954      6.13059      8.34897        -0.121915     -0.226946      0.083311
O	      6.24950      8.28982      8.81631         0.116265     -0.039547      0.061400
O	      6.17152      6.33062     10.68862         0.167881      0.076083      0.065533
O	      8.16965      8.30239     10.61850        -0.024920     -0.113138     -0.115615
