# total energy = -206.45393739 eV
 
CRYSTAL
PRIMVEC
-0.082382 6.006962 5.980142 
6.635976 0.004459 5.897161 
4.499405 4.022419 -0.069801 
PRIMCOORD
36 1
Li	      2.49702      5.94486      8.06377         0.072342      0.059356     -0.030709
Li	      4.39754      7.89724      7.92921         0.059003     -0.104456      0.191700
Li	      4.53806      6.06381      9.84043        -0.047537      0.162056     -0.116223
Li	      6.50283      7.96767      9.80019        -0.136830      0.118562      0.015527
Li	      6.55438      2.07227      7.86859        -0.122512     -0.094336      0.045289
Li	      2.31413      2.00098      3.90712         0.143365     -0.023727     -0.018539
Li	      8.69336      5.98501      9.79915        -0.000951      0.020066     -0.157028
Li	      4.57999      6.06122      6.01765         0.048487     -0.118990      0.076674
Li	      6.47439      6.06127      7.93124        -0.118210      0.067429     -0.067494
Ti	      4.57221      4.14040      3.84905        -0.044652     -0.817938      0.253266
Mn	      8.80876      4.04960      7.88717         0.388735      0.414689     -0.182270
V	      2.07022      7.79937      5.88284        -0.219692      0.389879      0.037030
Co	      6.65259      4.06041      5.89947        -0.143712      0.043417     -0.315881
Cu	     11.06100      4.01524      5.85529         0.051788      0.352415      0.283596
Cu	      4.43032      7.98766      3.93190        -0.081588     -0.216060     -0.089063
Cu	      6.67054      7.97388      5.88198         0.053268     -0.038331     -0.232305
Ni	      4.33546      2.02335      5.87774         0.103523     -0.103699      0.047872
Ni	      8.72968      8.05533      7.91851         0.087405     -0.162203     -0.169895
O	      4.43634      5.94148      7.93828         0.036636      0.314769      0.022003
O	      6.72848      8.02321      7.75761        -0.262337     -0.146555     -0.172784
O	      6.56939      5.88330     10.01197         0.007725     -0.264278     -0.159612
O	      2.18221      2.12061      1.81001        -0.000714     -0.101794     -0.072437
O	      4.17624      4.02357      1.92833        -0.032122      0.074839     -0.071010
O	      4.43967      2.12071      3.98427         0.240799      0.454430     -1.026831
O	      6.46320      4.05432      3.94297        -0.107257     -0.019677     -0.154347
O	      6.80883      2.06428      5.87290         0.099198     -0.438406      0.106050
O	      8.58731      4.02042      5.92662         0.206323     -0.473139      0.174463
O	      2.39915      4.04097      3.91571         0.111508      0.018662      0.291014
O	      4.44343      6.01787      3.94450         0.087339      0.295005     -0.059255
O	      4.71618      3.96827      5.93437        -0.068544      0.631254     -0.209656
O	      6.79568      6.00912      5.81246        -0.474718      0.547484      0.401575
O	      6.87421      4.04584      7.87175        -0.071845      0.012598      0.387653
O	      8.91473      5.99107      7.74115         0.053579     -0.403303      0.994594
O	      2.13448      6.06367      6.00236        -0.002336     -0.415793     -0.009012
O	      3.96928      8.07513      5.89970         0.175995     -0.032399     -0.249969
O	      8.65418      7.99288      9.99115        -0.091464     -0.001824      0.236016
