# total energy = -206.97960933 eV
 
CRYSTAL
PRIMVEC
0.052937 6.383921 6.227053 
6.095132 0.061130 6.218253 
4.094632 4.281237 0.009956 
PRIMCOORD
36 1
Li	      2.09549      8.43042      6.24393        -0.021583     -0.027582     -0.029057
Li	      6.10582      4.33490      2.13449        -0.026459     -0.037314     -0.046762
Li	      3.95184      2.13622      2.16010         0.079794     -0.043686      0.060345
Li	      6.29925      8.67050     10.41138        -0.011449     -0.007684     -0.032501
Li	      1.99016      2.14792      4.04341         0.021640      0.051825      0.043431
Li	      4.11337      4.29910      4.10616        -0.070687     -0.050688     -0.043755
Li	      2.12095      6.38585      4.20068        -0.025673     -0.040876     -0.020192
Li	      2.04425      4.35240      6.09448        -0.002668     -0.007609     -0.078349
Li	      4.16044      4.33502      8.36956        -0.043309      0.018836     -0.019005
Ti	      4.10854      2.29082      6.09201         0.014298      0.203259     -0.322006
Mn	      4.19949     10.55818      6.28595         0.190727     -0.014891     -0.244691
V	      6.13194      6.64213      8.32757        -0.167619      0.151294      0.066513
Co	      6.11774      4.33240     10.34019         0.138849     -0.003931      0.092435
Cu	      8.12542     10.62640     10.36081         0.071860      0.196570     -0.027401
Cu	      4.11123      6.36545      2.19735         0.021539     -0.154044     -0.061556
Cu	      2.06537      4.18077      2.14582         0.211177      0.006337      0.169711
Cu	      6.17124      4.30118      6.18233        -0.216375     -0.051182     -0.037765
Ni	      4.05162      6.41977      6.14438         0.016620      0.008720      0.099870
O	      6.20464      8.36495      8.41949         0.015890     -0.015543      0.019952
O	      8.30707      8.68458     10.36045        -0.090718      0.016952      0.004189
O	      1.93042      2.20144      2.07131         0.040634     -0.110320     -0.009568
O	      4.04844      4.09656      1.93805        -0.017707     -0.088350      0.094056
O	      4.05861      2.05836      4.27446        -0.025293      0.011467      0.350719
O	      6.15808      4.27333      4.24442        -0.039679     -0.004293     -0.137031
O	      6.02810      1.93300      6.31867         0.080561     -0.002371      0.003138
O	      8.20989      4.43371      6.34917        -0.080232     -0.055652      0.077999
O	      1.96042      4.26324      4.07847         0.016611      0.037744      0.110094
O	      4.07537      6.61531      4.16391        -0.038707      0.152631     -0.254236
O	      4.19161      4.21012      6.19227        -0.182366     -0.189429     -0.000266
O	      6.22319      6.54160      6.40105         0.179249      0.030366     -0.024251
O	      6.19716      4.50799      8.31628        -0.009766      0.167936      0.073069
O	      8.08454      6.42638      8.24306         0.068823      0.078810     -0.020669
O	      1.98917      6.34317      6.27408        -0.006983      0.023163     -0.064189
O	      4.13307      8.64135      6.06029        -0.049954     -0.252062      0.012899
O	      4.31080      6.46254      8.12834        -0.040063     -0.024339      0.141424
O	      6.10925      6.32715     10.30590        -0.000980      0.025933      0.053405
