# total energy = -206.88052208 eV
 
CRYSTAL
PRIMVEC
0.019952 5.965905 6.170232 
6.717144 -0.001975 6.190886 
4.456280 3.967584 0.021979 
PRIMCOORD
36 1
Li	      6.75400      0.05012      6.19847        -0.031064     -0.026586     -0.103081
Li	      8.77138      1.99625      6.20891        -0.036329      0.021654      0.054828
Li	      6.65139      4.00868      2.11100        -0.008754      0.063922      0.001891
Li	      8.82579      3.96391      4.21702        -0.009568     -0.027661      0.007096
Li	     11.12099      5.92111      8.20185         0.003182      0.028091      0.034268
Li	      2.34091      1.92889      4.10388         0.023180      0.037879     -0.049231
Li	      4.63160      1.98494      6.13313         0.101813     -0.033620     -0.055245
Li	      4.41657      5.93685      6.16146        -0.014960     -0.007611     -0.005268
Li	      6.79076      5.92552      8.31392        -0.002529     -0.022823      0.055748
Ti	      4.30333      1.89628      2.06712        -0.484452     -0.275797      0.217095
Mn	      2.26319      5.97040      4.12945        -0.172933     -0.011101      0.294880
V	      6.70992      7.85229      6.33453        -0.159168     -0.003052     -0.026130
Co	      0.03884      3.97521      4.10458         0.037018     -0.028939      0.096861
Cu	      6.69479      1.97989      4.22297        -0.087445     -0.221865     -0.216924
Cu	      8.94817      3.97642      8.17048         0.055258      0.058710      0.170553
Cu	      4.56222      3.99193      4.08318         0.042493      0.150022      0.154851
Cu	      6.86605      3.98926      6.21184         0.203289      0.144633     -0.009540
Cu	      4.58306      4.02344      8.22965        -0.009127     -0.117044      0.099226
O	      6.90587      3.97645      8.19240         0.049486     -0.016933      0.651297
O	      4.44876      5.97400      8.27098        -0.028237      0.268086     -0.038145
O	      9.14665      7.88253     10.24388         0.682635     -0.018507     -0.009161
O	      2.40111      2.00103      2.02488         0.401469     -0.383034      0.022410
O	      4.36802      3.90835      2.08595        -0.040889      0.221887      0.031451
O	      4.45518      2.04398      3.99283        -0.094606     -0.246920     -0.137852
O	      6.69296      3.91578      4.27676        -0.104911      0.229724     -0.147402
O	      6.70334      2.05641      6.15566         0.049453     -0.034969      0.208339
O	      8.95399      4.01072      6.25153        -0.073609      0.063428     -0.268006
O	      2.12957      4.03949      4.17679        -0.480867     -0.056401     -0.014783
O	      4.22439      5.92581      4.13844         0.108387      0.036661     -0.093968
O	      4.12322      3.94699      6.26065         0.220940     -0.006683     -0.121779
O	      6.63976      6.07570      6.14981        -0.043728     -0.143285      0.026753
O	      8.95804      5.99467      8.40266         0.078020      0.225441     -0.361418
O	      2.24008      5.83794      6.05272         0.002020      0.037573     -0.019250
O	      4.70801      7.94084      6.23956        -0.101369      0.017543     -0.462702
O	      6.52043      7.97611      8.13078        -0.147507     -0.005493      0.029838
O	      7.01755      6.00559     10.31523         0.073410      0.083069     -0.017499
