# total energy = -207.92430980 eV
 
CRYSTAL
PRIMVEC
0.038227 6.267737 6.224869 
6.160006 0.014195 6.248614 
4.106045 4.193607 0.010071 
PRIMCOORD
36 1
Li	      2.06924      2.13582      0.07757        -0.044705      0.027741      0.020619
Li	      2.23978      6.35634      8.29777        -0.027536      0.072341     -0.020832
Li	      4.14625      6.29773     10.28303         0.002868      0.025672     -0.025201
Li	      4.10982      6.32438      2.15991        -0.014914     -0.038970      0.026336
Li	      4.12932      4.21629      4.28120         0.003050      0.010616      0.009379
Li	      6.09147      4.29002      6.26157         0.018629     -0.004097     -0.016483
Li	      8.29611      6.27767     10.31189        -0.016889     -0.028382     -0.028768
Li	      4.16475      6.17661      6.28735        -0.027407     -0.029950     -0.053281
Li	      4.15514      4.26363      8.20293         0.009428      0.045696      0.012807
Ti	      6.23054      2.29564      4.06487         0.040959      0.392537     -0.072617
Mn	     10.22650      8.33199     10.40216        -0.023280     -0.082162      0.006658
V	      0.06562      0.06113      0.02362        -0.005633     -0.010247      0.100831
Co	      2.04467      4.16882      2.09024         0.022331     -0.049221     -0.009476
Ni	      4.10097      8.30467      8.31552        -0.008531      0.131273     -0.056915
Ni	      8.21778      6.31257      6.27201         0.088260     -0.050829      0.005869
Ni	      6.15151      6.24456      4.17195         0.015955     -0.060675     -0.018570
Ni	      2.13738      4.15008      6.24628        -0.043043      0.079386     -0.001413
Ni	      6.14853      6.23592      8.26119         0.077338     -0.030356      0.082384
O	      2.08196      2.22025      2.14176        -0.142832      0.049713     -0.100439
O	      3.98089      4.14399      1.91350        -0.019371      0.093377     -0.029072
O	      4.24558      2.10856      4.17676         0.143818      0.014603     -0.020944
O	      6.19034      4.12303      4.15948         0.015233     -0.501034     -0.058361
O	      6.19530      1.92927      6.11413         0.066446     -0.031213     -0.076747
O	      8.33650      4.21832      6.41101         0.010801     -0.068382      0.011668
O	      1.90890      4.15669      4.08564        -0.055016      0.053241     -0.086040
O	      4.10282      6.44609      4.19700        -0.068884      0.086411      0.014619
O	      4.10770      4.11867      6.25236         0.142863      0.102890     -0.020269
O	      6.21588      6.31423      6.20671        -0.132220     -0.114513      0.049586
O	      6.25061      4.19893      8.46440         0.023625     -0.087830      0.076290
O	      8.16437      6.09129      8.28845         0.037844     -0.025701      0.116995
O	      1.88242      6.22460      6.31522        -0.053293      0.064139     -0.025412
O	      4.13798      8.50135      6.12530        -0.077763     -0.003025     -0.098948
O	      4.18360      6.34410      8.26709        -0.024768     -0.152730      0.011506
O	      6.17232      8.31553      8.39299         0.137810      0.113894      0.273946
O	      6.14496      6.18971     10.54910         0.015182     -0.020856     -0.002476
O	      8.23646      8.36022     10.37833        -0.086353      0.026644      0.002773
