# total energy = -51.35900257 eV
 
CRYSTAL
PRIMVEC
-0.000045 2.099540 2.099618 
4.035810 -0.002445 0.002368 
-0.005548 4.417753 -4.417469 
PRIMCOORD
8 1
Li	      4.02474      0.21963     -0.21925         0.001001     -0.007952      0.006642
Li	      2.03232      2.13487     -0.03596         0.001006     -0.037158      0.037321
Ti	      1.90597      4.38951     -2.28811        -0.149547      0.107815     -0.108782
Ni	      0.01102      4.17037      0.02872        -0.005073      0.025860     -0.024543
O	      0.01407      2.17525     -0.07560         0.003931     -0.132191      0.131726
O	      2.04573      4.45273     -0.25408        -0.019088      0.080350     -0.078857
O	      0.03845      4.28032     -2.18079         0.193997      0.070826     -0.069182
O	      2.03277      4.23294     -4.23247        -0.026227     -0.107550      0.105675
