# total energy = -209.17135501 eV
 
CRYSTAL
PRIMVEC
0.000447 6.272636 6.142070 
6.284868 -0.055923 6.197259 
4.164761 4.193940 -0.012268 
PRIMCOORD
36 1
Li	      8.26944      8.39013     12.14413         0.014435      0.024656      0.051288
Li	      6.22258     10.30169      8.27147         0.022955     -0.067771     -0.011671
Li	      8.39895     10.21992     10.28753         0.033728     -0.059221      0.027201
Li	      6.42947      8.34068     10.27498         0.002408     -0.030701     -0.036385
Li	      4.27608      2.02696      6.22596         0.047645      0.004703     -0.049224
Li	     10.24878      8.41882     10.23624        -0.036757      0.080954      0.010132
Li	      8.33875      6.41208     10.22625        -0.037385      0.066214      0.055840
Li	      6.29741      8.29972      6.17193         0.036892     -0.005774     -0.017918
Li	      8.32092      8.34743      8.38443        -0.055624      0.001765     -0.037936
Ti	      2.19578      2.07608      4.14372         0.169251     -0.059296      0.080283
Mn	      6.24764      0.00595      6.13544         0.106104      0.003494     -0.036764
V	      3.97994      6.30856      6.20422        -0.064519     -0.010237      0.090993
Co	      4.18636      4.18847      4.08042         0.007290     -0.022458      0.137683
Co	      6.38088      6.32465      8.33934        -0.046619      0.183249      0.034564
Cu	      6.23310      2.10964      8.24772        -0.011560      0.083228      0.086195
Cu	      8.36846      4.17059      8.22641        -0.023244      0.025210      0.059576
Ni	      4.17688      8.28775      8.19114        -0.027785     -0.069443     -0.019021
Ni	      6.29971      4.12567      6.15989         0.063267      0.009233     -0.002626
O	      8.41599      6.20344      8.24680         0.023263     -0.002533     -0.022315
O	      8.35867      8.34215     10.24387        -0.029428     -0.009352      0.033259
O	      1.99835      2.11914      2.18446         0.021612     -0.012749      0.015452
O	      4.12673      4.02635      2.01627         0.111660     -0.021185      0.021562
O	      4.09901      2.18946      4.10484        -0.216972      0.210153      0.115950
O	      6.16422      4.27486      4.09484        -0.157518      0.130884     -0.122654
O	      6.27717      2.06249      6.29297         0.013303      0.093162      0.090632
O	      8.38869      4.11851      6.24733         0.090916      0.029828     -0.102977
O	      2.23465      4.07501      4.06108         0.212701     -0.118547      0.040675
O	      4.23048      6.15344      4.15879         0.016202     -0.187054     -0.163903
O	      4.22961      4.35882      5.99273        -0.108552      0.006419     -0.114007
O	      6.16632      6.24691      6.08184         0.009555      0.054844     -0.178223
O	      6.39238      4.40324      8.21523        -0.118051      0.049049      0.057776
O	      2.21294      6.21394      6.17290        -0.147592     -0.038384     -0.031883
O	      4.18772      8.12694      6.10522        -0.008264     -0.079825     -0.087739
O	      4.19327      6.21107      8.01313        -0.002793     -0.120915     -0.005861
O	      6.21878      8.14113      8.19431         0.104076     -0.131768      0.007862
O	      6.27312      6.24454     10.37902        -0.014598     -0.009834      0.024181
