# total energy = -209.29252777 eV
 
CRYSTAL
PRIMVEC
0.029409 5.988541 6.120488 
6.730042 0.004716 6.143427 
4.487963 4.008216 0.003275 
PRIMCOORD
36 1
Li	      2.42523      2.11265      0.08685         0.079478     -0.042864     -0.000194
Li	      4.66369      8.01732      8.15625         0.052482     -0.009232      0.007335
Li	      8.75287      4.02082      4.18663        -0.025205     -0.028618     -0.045421
Li	      6.66197      2.08210      4.13687         0.009278      0.016411     -0.008764
Li	      4.47524      3.95472      4.09939        -0.050742     -0.020133      0.083197
Li	      6.74586      3.98223      6.08492        -0.025851      0.001192     -0.016125
Li	      0.20705      3.97026      4.16634         0.041994      0.026453      0.029018
Li	      6.68336      7.97373      6.07610         0.050489      0.015180      0.017912
Li	      4.37239      4.05973      8.09484        -0.059563     -0.039715     -0.061921
Ti	      6.58449      6.00753      8.11861        -0.109690      0.357663     -0.124627
Mn	     11.16185      6.01332      8.18335        -0.104258      0.251377     -0.049510
V	      9.01973      6.26033     10.31602        -0.077918      0.385632      0.155002
Co	      2.43039      1.95853      4.02202         0.137648     -0.121528      0.107540
Co	      4.53539      2.09485      6.03953         0.131498     -0.492781      0.116359
Cu	     11.15677      9.92478     12.24543         0.113921      0.104926     -0.150012
Cu	      6.68913      9.87048      8.17622        -0.002251     -0.158870     -0.170825
Cu	      8.94430      3.98531      8.15978         0.004739     -0.097782     -0.138908
Ni	      4.56265      5.99010      6.10392         0.002251     -0.276336     -0.119978
O	      4.49425      8.00750      6.14968         0.039805      0.269080      0.046842
O	      1.87822      1.80122      2.08969         0.028113      0.169975     -0.064950
O	      4.30360      4.10005      1.99828        -0.229567     -0.059784      0.060841
O	      4.39309      1.98019      4.10910        -0.281513      0.023584      0.323862
O	      6.75786      4.12505      4.01975         0.010742      0.312195      0.054676
O	      6.61486      1.92959      6.24308        -0.091097     -0.104103      0.254096
O	      8.91539      4.17748      6.22129        -0.219632      0.426128     -0.166066
O	      2.24899      3.79281      3.96281        -0.031468     -0.161441      0.128513
O	      4.23375      5.98599      4.00195         0.066750      0.036759     -0.086928
O	      4.54319      3.93301      6.12578         0.050643     -0.002681     -0.143518
O	      6.75517      6.00525      6.19034        -0.052376     -0.055224      0.147314
O	      6.84668      4.00098      8.18904         0.111565     -0.152086      0.039693
O	      9.18526      6.14503      8.35896         0.019642     -0.015125     -0.247499
O	      2.46708      5.94416      5.96229         0.067590      0.023284      0.026045
O	      4.77491      5.97039      8.20323         0.434574     -0.006505     -0.020727
O	      6.79132      7.91967      8.21382        -0.074591     -0.413175     -0.007671
O	      7.17986      5.96572     10.13611        -0.045556     -0.021695     -0.014913
O	      8.97163      7.97246     10.32621         0.028076     -0.140161      0.040312
