# total energy = -209.02448165 eV
 
CRYSTAL
PRIMVEC
-0.035751 6.106532 6.223408 
6.331108 -0.028745 6.216644 
4.227392 4.073369 -0.026108 
PRIMCOORD
36 1
Li	     10.51850     10.10925     12.36722        -0.031135     -0.006101      0.048048
Li	      6.33599      4.03901      2.20981        -0.046026     -0.015055      0.092253
Li	      8.33437      4.10393      4.15635        -0.193667      0.090184     -0.000724
Li	      6.22920      2.11269      4.12481        -0.128645      0.159019      0.077249
Li	      6.30003      6.03956      4.19897         0.140702     -0.208575     -0.009931
Li	      4.29795      4.07651      4.16556         0.261382     -0.163597     -0.042463
Li	      4.16358      2.06336      6.06805        -0.001076      0.007613     -0.134362
Li	      6.26711      4.09310      6.04260         0.018208     -0.035801     -0.126555
Li	      2.17038      6.03876      4.17011         0.009357      0.087181      0.015254
Ti	      6.39679      6.05133      8.35500        -0.015682      0.063509      0.121053
Mn	      4.19224      2.05109      2.16511        -0.119220      0.056542      0.380635
V	      8.31166      8.13248     12.29230        -0.255959      0.015594      0.266769
Co	      4.24764      6.05876      2.15083         0.080331     -0.129968     -0.160444
Co	      4.21606      6.12322      6.21418        -0.094017      0.020508      0.096587
Cu	      2.11781      4.06722      2.09272         0.093399      0.035752     -0.222219
Cu	      0.04468      4.05252      4.14990        -0.149540      0.068301      0.037831
Cu	      2.11057      4.11187      6.13423         0.165557      0.266761     -0.104261
Cu	      4.16269      4.09031      8.26477         0.016592     -0.087001      0.349078
O	      6.29352      6.00591     10.21906         0.121778     -0.097501     -0.188296
O	      8.48583      8.10752     10.49266         0.215352     -0.069239     -0.113443
O	      2.21317      2.00128      1.93199        -0.135493     -0.137766      0.035558
O	      4.16313      3.99605      2.07747        -0.096657      0.130134      0.051259
O	      4.18613      2.01065      4.02531         0.005200      0.028590     -0.032606
O	      6.34240      4.05400      4.13779        -0.039027      0.021845      0.105367
O	      6.57658      1.89886      6.27194         0.163466     -0.043130      0.019114
O	      8.51267      3.82767      6.23560        -0.023486      0.012013      0.056261
O	      2.00741      4.07121      4.05108        -0.040444      0.052445      0.278233
O	      4.19789      6.19184      4.22190         0.039003      0.095321      0.052925
O	      4.18380      4.22648      6.31175        -0.287026     -0.104488     -0.490435
O	      6.17289      6.24218      6.27798        -0.097583     -0.211109      0.011700
O	      6.36197      4.07883      8.10062         0.062944      0.212049     -0.013685
O	      8.34816      6.14454      8.18602        -0.015510      0.101809      0.008787
O	      2.25610      6.16273      6.22592         0.156469     -0.065062     -0.072827
O	      4.09162      8.04840      6.39520         0.030696      0.055763     -0.047334
O	      4.28597      6.14675      8.18345         0.156951     -0.084738     -0.123334
O	      6.13133      8.04982      8.32957         0.032809     -0.121805     -0.221039
