# total energy = -213.37116791 eV
 
CRYSTAL
PRIMVEC
0.038514 6.237549 6.350435 
6.174556 0.026111 6.363115 
4.090619 4.141195 0.043694 
PRIMCOORD
36 1
Li	      4.01245      4.05821      0.07537         0.033972      0.089872     -0.019249
Li	      6.20208     10.29174      8.58847         0.033357     -0.100944      0.057140
Li	      6.20401      8.35432     10.54013         0.040371     -0.018895     -0.123156
Li	      8.20475      4.17006      8.42625        -0.025131      0.002275      0.013368
Li	      4.17206      4.10973      4.38294        -0.012079     -0.010305     -0.007637
Li	      4.15253      2.14283      6.22404         0.004835      0.020052     -0.001714
Li	      4.03192      8.29681      4.42083         0.038993      0.041489     -0.058099
Li	      6.15877      8.29573      6.47634         0.086068      0.002446      0.085721
Li	      4.14562      6.26400      6.42129        -0.012558     -0.083576      0.030807
Ti	      4.11713      6.09289      2.12467         0.000639      0.086677     -0.135666
Mn	      6.12150      6.22989      4.37220        -0.018916     -0.001154      0.126918
V	      1.97757      6.11357      4.35969        -0.173918      0.142922      0.026523
Co	      8.23148     10.36838     10.61842        -0.024682     -0.147694     -0.014367
Co	      6.18416      4.15107      6.34480        -0.145729      0.034919      0.079333
Co	      4.09490      4.23679      8.40294         1.148352     -0.246351     -0.031642
Cu	      8.31495      8.38566     12.71610        -0.134913     -0.121767      0.088018
Cu	      4.15513      8.34547      8.47119         0.134329      0.025292      0.003629
Ni	      6.20722      6.24198      8.40492        -0.046090      0.220576      0.011625
O	      4.06445      8.31375      6.54250        -0.080707     -0.001312     -0.007203
O	      1.91911      2.15653      2.41519        -0.151505     -0.012498     -0.038956
O	      4.11558      4.26380      2.13774        -0.105678      0.200319     -0.001153
O	      4.04799      1.94336      4.13940         0.072863     -0.006646     -0.006151
O	      6.29130      4.10362      4.39733        -0.050405      0.053034      0.027830
O	      6.23352      2.19308      6.51050         0.030948      0.033106      0.052362
O	      8.15058      4.11329      6.21866         0.000348      0.036505     -0.067019
O	      2.05632      4.34691      4.33943        -0.006383     -0.039733     -0.069023
O	      4.00352      6.28165      4.17551         0.029350     -0.027696      0.040295
O	      4.25696      4.15898      6.38820        -0.015795      0.037599      0.839144
O	      6.19487      6.11005      6.29734         0.001467     -0.063129     -0.162212
O	      6.14263      4.17924      8.29254        -0.476806     -0.065105     -0.063773
O	      8.29544      6.27080      8.68819         0.072325      0.492761     -0.194399
O	      2.06671      6.36247      6.11523         0.040007      0.023726      0.023330
O	      4.16771      6.22719      8.63217        -0.102175     -0.586769     -0.060356
O	      6.31348      8.28238      8.41420         0.002941      0.018226      0.151438
O	      6.30701      6.26550     10.54035         0.090363     -0.056749      0.152528
O	      8.27998      8.36760     10.46230        -0.278058      0.028526     -0.748232
