# total energy = -212.25814229 eV
 
CRYSTAL
PRIMVEC
0.007032 6.135210 6.550007 
5.997333 0.002509 6.554823 
3.995882 4.091363 0.003283 
PRIMCOORD
36 1
Li	      5.97086      6.11544     13.00469         0.190892     -0.147499      0.039669
Li	      7.99118      8.22851     12.97894         0.083399     -0.141466      0.032597
Li	      7.99802      4.13201      4.49622        -0.233239      0.073351     -0.080964
Li	      5.97839      8.17657     10.84458         0.026207      0.178497     -0.221379
Li	      8.00174      4.12399      8.64538         0.102289     -0.158329     -0.011408
Li	      2.07905      2.02040      4.39015         0.056146     -0.271926     -0.101561
Li	      6.00536      8.18557      6.59975        -0.112703      0.168235      0.136069
Li	      7.94716      8.17519      8.88643        -0.217067      0.174569      0.048770
Li	      6.06133      6.14789      8.81932        -0.142822      0.221122      0.034878
Ti	      4.02171      6.11800      6.66701        -1.251487      0.293680      0.839518
Mn	      6.01847      4.10264     10.90812        -0.078106      0.230152      0.571610
V	      5.96086      2.08582      8.68514         1.027408     -0.276270     -0.576404
Co	      5.97598     10.17873      8.75928         0.396676      0.304404     -0.600042
Co	      3.98999      4.01174      4.36148         0.384063     -0.217909     -0.065960
Co	      3.98972      2.05622      6.54122        -0.105416      0.000310     -0.171148
Cu	      3.95800      2.07933      2.22048         0.111144     -0.230661     -0.070315
Cu	      6.05614      4.11032      6.52096        -0.036004     -0.004312     -0.208695
Cu	      7.94985      6.15335     10.95564        -0.184275      0.172562      0.179344
O	      5.89907      8.32136      8.73559        -0.113074     -0.723391      0.085502
O	      1.92498      1.90414      2.16443        -0.585084      0.546061      0.005938
O	      4.05848      4.09380      2.19541        -0.446192      0.986182     -0.094659
O	      4.00632      2.09884      4.62970        -0.127471     -0.151680      0.324542
O	      5.90206      4.08093      4.06678         0.307642      0.197680      0.771691
O	      5.94244      2.13712      6.71107        -0.146961      0.033510      0.763150
O	      7.95943      4.24091      6.55787        -0.027899      0.140951      0.044175
O	      1.98532      4.18256      4.35044        -0.210581     -0.069149      0.036898
O	      3.96977      6.15490      4.31573        -0.043631      0.082769     -0.404445
O	      4.06320      4.13145      6.51992         0.197991     -0.237950      0.161063
O	      6.00032      6.09626      6.59866         0.291328      0.020885     -0.088038
O	      6.04722      3.97234      8.96340        -0.119389     -0.770415     -0.189922
O	      8.13208      6.14092      8.54392         0.062809     -0.043517     -0.074237
O	      2.08487      6.10946      6.79339         0.640668     -0.039346     -0.542697
O	      4.01787      8.03103      6.30769         0.066043     -0.042124     -0.281232
O	      3.94107      6.20026      8.60435         0.230606     -0.041896     -0.317556
O	      6.02419      6.00776     10.89535         0.029780     -0.107888      0.044859
O	      8.09302      8.11478     10.92035        -0.023690     -0.149188     -0.019612
