# total energy = -212.51998367 eV
 
CRYSTAL
PRIMVEC
-0.027821 6.272214 6.218001 
6.105083 0.002502 6.187597 
4.084348 4.175575 -0.012769 
PRIMCOORD
36 1
Li	      0.02895      6.23995      6.18269        -0.025927     -0.007256      0.025797
Li	      2.06861      6.18860      8.20811        -0.014550      0.017597      0.045482
Li	      4.07442      8.37887      8.19399        -0.038060      0.060651      0.057849
Li	      4.07095      6.24590      2.04953         0.040572     -0.033103      0.024523
Li	      6.07033      4.15481      6.18592        -0.016541      0.132836     -0.052359
Li	      4.06279      8.37025      4.22776         0.037180     -0.020819      0.055639
Li	      6.00400      8.36551      6.27799        -0.017691     -0.128893     -0.033281
Li	      4.02561      6.33951      6.28219         0.158078     -0.010180      0.026202
Li	      6.04458      6.32311      8.28023        -0.028511      0.020947      0.006612
Ti	      7.99238      4.24011      8.22185         0.027054     -0.236930      0.071473
Mn	      2.04184      8.31407      6.26322         0.046979      0.007657      0.033504
V	      4.10551      4.19801      4.13186         0.172817      0.376134     -0.072680
Co	      6.12827      8.35679     10.31668        -0.047129      0.073137      0.089896
Co	      6.06132      6.24022      4.23822         0.186910      0.230965     -1.014829
Co	      4.07467      4.20328      8.21225        -0.062927      0.098379     -0.069916
Ni	      4.09813      6.27379     10.28985        -0.074805      0.050681      0.034752
Ni	      1.99200      6.27914      4.20195         0.066280     -0.068322     -0.011085
Ni	      4.12841      2.07346      6.17609        -0.317527      0.079202     -0.001948
O	      1.99921      2.22116      2.03652        -0.104220      0.105177     -0.026664
O	      3.92898      4.16633      2.24040        -0.022386      0.049810      0.120096
O	      4.15324      2.09343      4.09595         0.029751      0.192139     -0.046932
O	      6.07643      4.16422      4.05790        -0.248361     -0.301501      0.071625
O	      6.17315      2.11439      6.05368         0.148483     -0.027173     -0.075151
O	      8.14471      4.11973      6.27350        -0.007241     -0.130457      0.179725
O	      2.03753      4.16144      4.05207         0.101356      0.118882     -0.135744
O	      4.08931      6.13674      4.12672        -0.015302     -0.411774      0.253272
O	      4.04142      4.10861      6.00271         0.002870      0.076888     -0.045696
O	      6.17292      6.26686      6.02762        -0.132602     -0.186431      0.269411
O	      6.09506      4.18362      8.27216         0.013571      0.012732      0.002947
O	      8.15819      6.26075      8.23021        -0.038967      0.043492      0.119032
O	      2.00480      6.44097      6.22975         0.015477      0.004462      0.006295
O	      3.91239      8.36748      6.22663        -0.125156      0.019428      0.018899
O	      4.08296      6.04589      8.30301         0.035767     -0.151312     -0.112114
O	      6.28072      8.34386      8.38025         0.121595     -0.015183      0.072316
O	      6.10056      6.46607     10.32896         0.057388     -0.000537      0.035552
O	      8.04888      8.38214     10.47767         0.075778     -0.041326      0.077501
