# total energy = -216.41907638 eV
 
CRYSTAL
PRIMVEC
0.027348 6.230106 6.327394 
6.177997 0.072072 6.284234 
4.125780 4.131098 0.040850 
PRIMCOORD
36 1
Li	      6.24418      6.32000     12.52071        -0.036761      0.007748     -0.020271
Li	      2.12719      6.23987      8.33816         0.015563      0.007233     -0.082244
Li	      6.28506      8.24816     10.47941        -0.009289      0.010519     -0.012562
Li	      8.24901      6.23747      6.40998        -0.017906      0.002331      0.083223
Li	      6.16107      4.30808     10.52745        -0.070274      0.012170     -0.014913
Li	      2.12995      4.22534      6.29533         0.029601     -0.065979      0.000298
Li	      4.07491      6.25624      6.39348         0.032112      0.033279     -0.010725
Li	      8.19955      8.34253      8.51708         0.024646      0.009676      0.063156
Li	      6.23194      6.29562      8.53151        -0.038922     -0.021049      0.012005
Ti	      4.33091      8.29314      8.36923         0.266440     -0.134614     -0.268974
Mn	      6.16242      6.24462      4.26151        -0.000879      0.087751     -0.069381
V	      6.06885      4.19261      6.36249         0.137721      0.070200      0.201600
Co	      8.24865      8.33467     12.54457         0.056061     -0.153687      0.021750
Co	      4.18648      6.26971     10.50218         0.153597     -0.061746      0.001230
Co	      4.13935      6.18733      2.15782        -0.006343     -0.015120      0.034933
Co	      8.16571      6.29445     10.53044        -0.045590      0.048658     -0.171497
Ni	      8.25089      4.24999      8.40652        -0.039332     -0.052533     -0.056373
Ni	      4.14076      4.14062      4.21615         0.016375     -0.016220      0.044605
O	      1.99262      2.10422      2.22088         0.006776     -0.103402      0.092358
O	      4.10815      4.15581      2.18851         0.167083     -0.022779     -0.138341
O	      4.01469      2.05231      4.11491         0.032826     -0.064914      0.004988
O	      6.25788      4.25958      4.30628        -0.027171      0.130634      0.081412
O	      6.26460      2.17767      6.46847        -0.047010      0.109564      0.049044
O	      8.12281      4.08037      6.21423        -0.006450     -0.052597     -0.021618
O	      2.08793      4.04232      4.22963        -0.113308     -0.043538      0.072859
O	      4.21184      6.19505      4.10631         0.019488      0.048443      0.024203
O	      4.27244      4.15460      6.26620        -0.001870      0.000728      0.060524
O	      6.20725      6.15723      6.19375        -0.070862     -0.300784     -0.033675
O	      6.21664      4.07331      8.28667        -0.082721     -0.032219     -0.067779
O	      8.39071      6.24244      8.50721         0.051718      0.099036     -0.015050
O	      2.10341      6.37725      6.19887        -0.003904      0.149578      0.148725
O	      4.00235      8.29551      6.51904         0.079152      0.098856      0.244517
O	      4.16228      6.37677      8.56940        -0.013501      0.176312     -0.081170
O	      6.13248      8.36192      8.38499        -0.341133     -0.011171     -0.013391
O	      6.12749      6.29124     10.52403        -0.084042      0.085202      0.060140
O	      8.26295      8.48985     10.61145        -0.031894     -0.035568     -0.223605
