# total energy = -51.73616365 eV
 
CRYSTAL
PRIMVEC
-0.000950 2.104550 2.104353 
4.089911 -2.119105 2.117100 
2.007800 2.087539 -4.192618 
PRIMCOORD
8 1
Li	      0.09483     -0.02404      0.02110         0.004877      0.002630     -0.005285
Li	      1.99104      2.04715      0.05567        -0.022027     -0.005854      0.006054
Ti	      4.14330     -0.00944      0.00934         0.191925     -0.045558      0.041611
Ni	      3.96872      2.10029     -2.10518        -0.049184     -0.047670      0.047667
O	      4.05394      0.09870      2.00220         0.116373      0.079425     -0.074874
O	      1.92235      2.10059     -2.10258        -0.347455      0.009007     -0.006019
O	      2.11520     -0.06248      0.05745         0.085691      0.131167     -0.119688
O	      4.04677      2.02901      0.07336         0.019800     -0.123147      0.110534
