# total energy = -217.51202081 eV
 
CRYSTAL
PRIMVEC
-0.051364 6.110151 6.308126 
6.205961 -0.038550 6.294265 
4.134068 4.060510 -0.022169 
PRIMCOORD
36 1
Li	      4.14351      4.08386      0.19027        -0.028837     -0.062654      0.029414
Li	      6.06054      4.10746      2.12354         0.007847      0.037265      0.027690
Li	      4.08231      2.01125      2.14886        -0.011360     -0.047206     -0.000206
Li	      8.14667      4.07484      4.21563         0.017972     -0.034933      0.046582
Li	      2.15204      3.99422      2.05319        -0.037986     -0.034377     -0.054091
Li	      6.27895      5.95320      4.15679         0.002895     -0.023772     -0.033672
Li	      6.25288      4.05320      6.21172         0.066977     -0.016289     -0.041124
Li	      6.14607      8.13342      6.27476        -0.028133     -0.080367     -0.002323
Li	      4.13484      6.11252      6.27869         0.040024      0.068824     -0.000205
Ti	      4.06999      4.16014      8.18902        -0.196612      0.251899     -0.219119
Mn	      6.17600      2.01812      4.22247        -0.069668      0.096147     -0.013703
V	      0.04083      4.11393      4.30855        -0.034188     -0.030799      0.278745
Co	      2.00748      2.08306      0.10650         0.275019     -0.672686     -0.952099
Co	      4.13337      6.05888      2.08461         0.203909     -0.159876     -0.067278
Co	      4.10948      4.03838      4.19364         0.030901     -0.018672     -0.154443
Co	      8.25194      6.10691     10.46629        -0.025203      0.169456      0.184544
Co	      6.21300      6.05874      8.31409        -0.081926      0.109383      0.009864
Ni	      8.22670      5.93531      6.25737         0.041510     -0.075379      0.100525
O	      1.89501      2.00410      2.08424        -0.061872      0.160583     -0.004485
O	      4.10097      4.17342      2.16537         0.044674      0.095676      0.158795
O	      4.22844      1.96987      4.22630         0.084165     -0.109583      0.081622
O	      6.18505      3.89328      4.19167        -0.067177     -0.016249     -0.017333
O	      6.15893      1.98021      6.48230         0.081310      0.044682      0.035623
O	      8.29750      3.88214      6.26478        -0.145477      0.118953      0.281893
O	      1.94649      4.20888      4.20863         0.047776      0.098157      0.078589
O	      4.00450      6.19023      4.07191        -0.058464      0.068146     -0.059547
O	      4.10787      4.01610      6.35288        -0.018426      0.049122      0.261488
O	      6.23882      6.02398      6.43760        -0.034666     -0.005053      0.059594
O	      6.06976      4.05808      8.56037        -0.073604      0.038158     -0.025193
O	      8.25097      6.13713      8.46411        -0.093288      0.024943      0.034128
O	      2.03685      6.28440      6.08928        -0.031568      0.231857      0.237343
O	      4.07268      8.16824      6.06861        -0.098275      0.015688     -0.151288
O	      4.24668      6.02820      8.35522         0.047999     -0.311346     -0.032994
O	      6.27744      8.01559      8.33919         0.205792     -0.020405     -0.042576
O	      6.31029      6.09554     10.32584         0.031325      0.018182     -0.093347
O	      8.21847      8.04911     10.39142        -0.033365      0.022526      0.058591
