# total energy = -204.17372179 eV
 
CRYSTAL
PRIMVEC
-0.010471 6.234519 6.262243 
6.213143 0.004225 6.248123 
4.146477 4.151053 -0.001551 
PRIMCOORD
36 1
Li	      2.16995      8.18766      6.18468        -0.040565      0.038590      0.010527
Li	      2.08950      6.19908      8.21889         0.001580      0.002939      0.026842
Li	      4.14413      8.29689      8.18690         0.003348     -0.009250      0.006420
Li	      6.24506      4.16235      6.27543        -0.007405     -0.038981     -0.004539
Li	     10.19833      8.35739     10.52460        -0.071017      0.006481     -0.013659
Li	      8.22655      6.38118     10.57924         0.002377      0.009646     -0.001193
Li	      6.09774      8.40694      6.30066         0.025393      0.023421     -0.013129
Li	      3.98260      6.37719      6.32120        -0.128380      0.035430      0.010985
Li	      8.27534      8.32312      8.45394         0.015907     -0.012678      0.018863
Ti	      6.09992      6.31706      8.31728        -0.341500      0.302275     -0.001999
Mn	      6.22741      2.10672      8.33314         0.092528      0.064318      0.007051
V	      4.12033      4.20087      4.30025         0.047747      0.076546      0.142582
Cu	      8.30521      6.19550      6.26599         0.001967      0.169080     -0.083102
Ni	      0.05837      6.17648      6.24632        -0.019989      0.037792     -0.037844
Ni	      8.27027     10.31123     10.39291        -0.056611      0.096556     -0.012138
Ni	      6.27321      8.29271     10.39840        -0.059940     -0.002116     -0.008600
Ni	      8.28032      4.13003      8.30088        -0.008124     -0.074433      0.008791
Ni	      6.22692      6.19052      4.21072         0.017339      0.042843      0.059867
O	      1.92413      6.20469      6.27026         0.203863      0.019920     -0.013935
O	      4.13936      8.45340      6.25521        -0.006557     -0.228855     -0.026783
O	      1.90276      2.10857      2.15838        -0.048617     -0.125367     -0.090053
O	      4.12463      4.30347      2.18734         0.114053     -0.021795      0.045695
O	      4.17885      2.17382      4.21547        -0.004510     -0.006636     -0.054690
O	      6.07842      4.13632      4.16568        -0.128973     -0.033164      0.014030
O	      6.16498      1.96866      6.37059         0.115995      0.103107      0.077818
O	      8.46873      4.21441      6.20095        -0.150994     -0.037363      0.041777
O	      2.31649      4.07503      4.12405         0.017412      0.091377      0.105695
O	      4.15044      6.10062      4.07802        -0.106050      0.050079     -0.020285
O	      4.15229      4.18954      6.06258         0.029858     -0.039804     -0.061226
O	      6.33461      6.18231      6.32764        -0.064098     -0.005638      0.098739
O	      6.23443      4.04828      8.31988        -0.092991     -0.017155      0.002045
O	      8.35067      6.20452      8.24422         0.024493      0.065982      0.194237
O	      4.23506      6.23094      8.30865         0.368306      0.010726     -0.077717
O	      6.22519      8.15854      8.34995        -0.028385     -0.339623     -0.138591
O	      6.20572      6.22795     10.28967         0.087327     -0.096286     -0.176559
O	      8.20822      8.35672     10.45122         0.195210     -0.157964     -0.035923
