# total energy = -204.60480191 eV
 
CRYSTAL
PRIMVEC
-0.049399 6.172758 6.074754 
6.333935 -0.053401 6.078750 
4.200376 4.095605 -0.013291 
PRIMCOORD
36 1
Li	      6.29789      4.12769      2.11477         0.081567     -0.029892     -0.006932
Li	      4.27333      0.04103      4.07888         0.032039      0.032615     -0.022061
Li	      6.21245      2.04029      4.04997        -0.019757      0.052393      0.022851
Li	      4.23763      6.11389      2.09198         0.043050      0.029288     -0.055975
Li	      6.30115      6.12964      4.04433         0.019317     -0.041302      0.038781
Li	      8.27902      6.10639      5.98925        -0.081006      0.014404     -0.038612
Li	      2.08825      6.09559      4.01547         0.018925      0.032069      0.054810
Li	      6.26625      8.09930      5.98640        -0.019674     -0.011046      0.048399
Li	      4.28844      6.15614      6.00929         0.017752      0.021973      0.005839
Ti	      4.09692      4.09242      8.01161        -0.250610      0.184284     -0.136119
Mn	      4.20173      4.11928      4.03637         0.112189     -0.004101      0.241321
V	      1.99199      8.08282      6.02009         0.014560     -0.335488     -0.450042
Cu	      2.12003      4.12905      2.02202         0.083592      0.034429      0.040644
Cu	      6.28387      6.13010      8.12995        -0.009319      0.122739      0.119479
Ni	      6.27661     -0.02080      6.05071         0.147285     -0.003177     -0.127493
Ni	      4.19509      8.16572      8.11931         0.154735     -0.153219     -0.044616
Ni	      6.33236      4.12002      6.03765        -0.110920     -0.098664     -0.043586
Ni	      4.24004      8.14282      4.04936        -0.021901     -0.141126      0.107093
O	      2.18224      2.05945      1.82077        -0.151235      0.281597      0.244141
O	      4.26030      4.05942      2.09751        -0.269795      0.226868      0.072061
O	      4.19572      2.17339      4.02900         0.000979      0.052188      0.198149
O	      6.11663      4.11231      4.08219        -0.066632     -0.027179     -0.269853
O	      6.53316      2.04068      6.06730         0.107480     -0.008405      0.082234
O	      8.43066      3.98412      6.13856         0.027486     -0.017536      0.009681
O	      2.17677      4.08665      3.97161         0.137386     -0.016731     -0.072978
O	      4.18554      6.06289      4.03878         0.004317     -0.152143     -0.060272
O	      4.19159      4.09575      6.08222        -0.146892     -0.033943      0.154274
O	      6.28551      6.08741      6.20470        -0.017103      0.213438     -0.100270
O	      6.16062      4.11099      8.10986         0.100179     -0.224018     -0.012594
O	      8.32614      6.24270      8.08474         0.123419     -0.246404     -0.000136
O	      1.99685      6.30634      6.08330         0.088322      0.174345      0.060617
O	      4.01981      8.26265      6.06525        -0.089082     -0.119521      0.018309
O	      4.23235      6.05861      8.13673        -0.177430     -0.275536      0.001454
O	      6.37102      8.13739      8.08957         0.277016      0.216707      0.025116
O	      6.31522      6.01912     10.10288        -0.037157      0.218583     -0.115571
O	      8.44733      8.17546     10.20926        -0.123083      0.031511      0.011857
