# total energy = -202.89493325 eV
 
CRYSTAL
PRIMVEC
-0.054794 6.371650 6.350272 
6.092069 0.039918 6.254654 
4.079263 4.202582 0.008660 
PRIMCOORD
36 1
Li	      0.02499      6.23756      6.19532         0.041912     -0.044310      0.000120
Li	      8.09794      8.48064     12.47447        -0.046292     -0.036689     -0.044848
Li	      4.07889      6.30031     10.42316         0.073101     -0.173073     -0.096163
Li	      6.15049      8.41919     10.45248         0.115745     -0.066586     -0.023504
Li	      4.08952      6.35395      2.20899        -0.022192      0.003079     -0.055814
Li	      4.08278      4.31986      4.19294        -0.010283     -0.022713     -0.020935
Li	     10.04510      8.53394     10.59376        -0.072315      0.081556      0.028674
Li	      8.05174      8.59564      8.52455        -0.016700      0.115446      0.084413
Li	      6.00006      6.39396      8.55254        -0.030652     -0.007743      0.057852
Ti	      4.13787      2.15533      6.10867         0.332421     -0.007384     -0.062689
Mn	      6.09229      4.23437      6.27028         0.035319     -0.267877      0.349940
V	      2.05860      4.29495      2.24469         0.078489      0.124774     -0.372714
Cu	      6.03771     10.57699      8.43357        -0.049949      0.035828     -0.188755
Cu	      5.99210      6.28991      4.19637        -0.187607     -0.015273     -0.025960
Cu	      6.04802      8.54158      6.43290         0.080342      0.185226      0.001722
Ni	      4.01593      8.44048      8.46830         0.067656     -0.006364     -0.050320
Ni	      8.06895      6.52488     10.51727        -0.603587      0.644524     -0.191088
Ni	      4.01072      6.43792      6.32978        -0.236287     -0.071455      0.240394
O	      6.03064      8.61101      8.39861         0.066330     -0.044820      0.051355
O	      6.19197      6.41174     10.48661        -0.160250     -0.277665     -0.143275
O	      8.10963      8.38648     10.47425         0.084141      0.628897     -0.157530
O	      2.01480      2.15162      2.22038        -0.126111      0.047282      0.054603
O	      3.91006      4.17398      2.07544        -0.175346      0.055931      0.067905
O	      4.08809      2.13843      4.29031        -0.157081     -0.014138      0.282717
O	      6.08185      4.27787      4.40612        -0.060258      0.217275     -0.290627
O	      6.00897      2.30426      6.29020        -0.360704     -0.180756      0.003573
O	      8.04031      4.33006      6.37446         0.206721      0.182579      0.012399
O	      1.98430      4.23639      4.04131        -0.004764     -0.396989      0.149133
O	      3.86997      6.35339      4.29222         0.884870     -0.331102     -0.257478
O	      4.07297      4.12180      6.37280        -0.081542     -0.218416     -0.082059
O	      6.10321      6.18289      6.24149         0.155404      0.246683      0.013957
O	      6.27560      4.22280      8.21733        -0.026914      0.014275      0.103412
O	      8.12630      6.15411      8.34904        -0.000759     -0.117448     -0.245893
O	      1.99489      6.42876      6.17116         0.087997     -0.289646      0.793101
O	      4.14267      8.44304      6.40051         0.006040      0.092732     -0.060665
O	      3.92225      6.41342      8.38613         0.113104     -0.085642      0.075047
