# total energy = -205.36495071 eV
 
CRYSTAL
PRIMVEC
-0.014647 6.075043 6.662305 
6.202320 0.010513 6.636652 
4.120938 4.018887 0.021711 
PRIMCOORD
36 1
Li	      2.10523      6.05727      8.81015        -0.114112      0.136870      0.088296
Li	      4.12868      1.98737      2.34275        -0.120900      0.103921      0.126465
Li	      4.08015      0.06543      4.30457        -0.041247      0.014757      0.026240
Li	      6.23314      8.02107     11.16049        -0.014351      0.001876      0.045585
Li	      6.21564      2.02518      8.71776         0.109375     -0.070314      0.011691
Li	      8.19775      6.05744      6.70039         0.036442     -0.065544     -0.052631
Li	      6.22824      4.03479      6.60482        -0.003045      0.045383     -0.088538
Li	      2.02250      6.02062      4.46127        -0.025923     -0.010079      0.004356
Li	      4.12631      6.03872      6.80413         0.060955     -0.024681      0.016225
Ti	      4.22830      3.92719      4.46352         0.298314     -0.202418     -0.560047
Mn	      6.16112      6.08033      8.86047        -0.223846      0.067711     -0.183814
V	     10.18331      8.05994     11.14105        -0.151574      0.053235     -0.273996
Cu	      2.01543      2.00657      0.11302         0.037506     -0.094185     -0.130593
Cu	      2.10500      4.03438      2.20106        -0.207699      0.193142     -0.024316
Cu	      2.07717      2.02132      4.39539         0.064871     -0.082007     -0.150599
Cu	      2.08069      4.08320      6.71005         0.016268      0.136047     -0.154086
Cu	      4.08965      4.04735      8.80449        -0.038403     -0.097571      0.213707
Cu	      6.21028      0.08075      6.68204        -0.460610      0.191924      0.020030
O	      1.94662      6.09193      6.70562         0.059365     -0.365858     -0.059783
O	      6.22054      7.96954      8.99704         0.172836      0.040589     -0.074137
O	      8.41998      8.04968     11.24113         0.009092     -0.027723     -0.012053
O	      2.10112      2.08994      2.05904         0.024665     -0.433463      0.273005
O	      4.04158      4.07225      2.50696         0.396307      0.043798      0.339367
O	      4.06633      2.05722      4.47098         0.099526      0.161091     -0.010325
O	      6.09999      4.08825      4.45503        -0.159609     -0.121478      0.067244
O	      6.27500      2.00988      6.63205        -0.251741     -0.219642     -0.008174
O	      8.35384      3.96509      6.81265         0.315767      0.415491     -0.082020
O	      2.02071      3.99008      4.25722        -0.171672      0.178067      0.070595
O	      4.20063      6.20401      4.40813        -0.141439     -0.033984     -0.017219
O	      4.01433      4.11206      6.34961        -0.105462      0.093583      0.146865
O	      6.15182      6.13646      6.93664        -0.013752     -0.068137      0.176791
O	      6.13522      4.11558      9.02435        -0.099175     -0.144221     -0.276620
O	      8.09810      6.08521      8.84720         0.189740      0.138891      0.061732
O	      4.18661      8.16733      6.34182         0.319073      0.066283      0.532121
O	      4.22953      6.00177      8.88490         0.109693     -0.024731     -0.014917
O	      6.21674      5.90247     10.84762         0.024768      0.003378     -0.046446
