# total energy = -212.38908305 eV
 
CRYSTAL
PRIMVEC
0.034509 6.171095 6.534856 
6.165412 0.055564 6.514067 
4.099107 4.088976 0.048511 
PRIMCOORD
36 1
Li	      8.27062      8.28638     12.99515        -0.012059      0.021016      0.054550
Li	      4.20054      8.18506      8.73792         0.005203     -0.074500      0.005912
Li	      4.12400      6.22896     10.77500        -0.044117      0.015310     -0.001315
Li	      6.09271      2.09393      8.56370         0.026012      0.044900     -0.074010
Li	      6.20768      6.07873      4.50625         0.009105      0.016152      0.038382
Li	      6.13552      4.15250      6.41021        -0.064348      0.082088     -0.005233
Li	      6.23669      8.17119      6.86367        -0.022339     -0.039519      0.047309
Li	      4.09539      4.14886      8.65719         0.037292      0.034253     -0.046092
Li	      6.15158      6.27628      8.60801        -0.072496     -0.034711     -0.117227
Ti	      4.26796     10.16944      6.71397         0.389001     -0.266434      0.207084
Mn	      8.16269      6.21192      6.55691        -0.152979      0.080221      0.044433
V	      8.02901      4.04443      8.67937         0.105068     -0.072471     -0.065254
Fe	      6.21986      8.28096     10.81597        -0.041396     -0.066942      0.051280
Co	      4.14959      6.19902      6.63811         0.346132     -0.046927     -0.033066
Cu	     10.22803      8.26772     10.94357         0.051599     -0.065155     -0.037799
Cu	      8.25436      6.26699     10.86650         0.043139      0.020213     -0.087480
Ni	      2.11288      0.03719      2.25012         0.003758      0.112297     -0.095317
Ni	      4.12382      4.13453      4.38569        -0.039148      0.060887     -0.033778
O	      2.04217      2.21780      2.19869        -0.003824      0.149610      0.027043
O	      4.03956      4.13592      2.14420        -0.032105     -0.001774     -0.133515
O	      4.15256      2.08766      4.54170        -0.054674     -0.129940     -0.076633
O	      6.16137      4.09138      4.31574         0.135204      0.025433      0.195574
O	      6.05319      1.99061      6.43814         0.145288     -0.029569     -0.063210
O	      8.30365      4.20254      6.72406        -0.038840     -0.068031     -0.038463
O	      2.04494      4.25482      4.04695         0.033146      0.017333      0.028933
O	      4.06090      6.20810      4.67731        -0.081009      0.039511     -0.095282
O	      4.10574      4.05456      6.46641         0.002394     -0.086195      0.029605
O	      6.23556      6.19136      6.50963         0.042503     -0.026997      0.040057
O	      6.30022      4.10890      8.58952        -0.089565      0.015703      0.100496
O	      8.21213      6.06988      8.48508        -0.045154     -0.001459     -0.126951
O	      2.07005      6.21971      6.72501        -0.534446     -0.004246     -0.034140
O	      4.15901      8.29314      6.67382        -0.043287      0.385229     -0.017880
O	      4.15046      6.16413      8.47062         0.086111     -0.024175      0.245194
O	      6.18183      8.24472      8.90476         0.015104     -0.147599      0.025626
O	      6.24389      6.18822     11.07529        -0.052541      0.019617     -0.007094
O	      8.25175      8.22166     10.92169        -0.051732      0.046871      0.048262
