# total energy = -212.55586688 eV
 
CRYSTAL
PRIMVEC
-0.010065 6.275434 6.553123 
6.022653 0.013463 6.528553 
4.018357 4.171013 0.005319 
PRIMCOORD
36 1
Li	      4.04029      4.18110      0.26237        -0.039831      0.055707      0.152130
Li	      4.05585      2.13838      2.26258        -0.072033      0.080086     -0.001124
Li	      3.99689      0.14514      4.29377         0.073451     -0.075162      0.086262
Li	      4.01608      6.23445      2.23543         0.013313     -0.007033     -0.044659
Li	      7.99357      4.24565      8.76155         0.088978     -0.062669     -0.029633
Li	      6.08432      6.13739      4.34110        -0.033255      0.007275      0.010201
Li	      4.05176      2.08455      6.38767         0.048095     -0.029080     -0.017145
Li	      5.95987      4.25823      6.60373         0.049641     -0.055027      0.032832
Li	      5.98443      4.17354     10.76501        -0.026801      0.001681      0.054002
Ti	      5.95053      8.24012      6.52740        -0.044728     -0.104459      0.050009
Mn	      7.98882      6.28169     10.91503        -0.037145      0.069360      0.047804
V	      7.93695      2.31246      6.65723        -0.028635     -0.015077      0.036288
Fe	      4.05676      4.10832      4.26779         0.002983      0.088802      0.095486
Co	      6.02512      6.28860      8.72838         0.012175      0.030842     -0.010266
Cu	      6.07188      4.22177      2.30981         0.040018      0.239793     -0.082118
Cu	      5.98368      2.10335      4.38949         0.039577     -0.022148      0.050682
Cu	      4.08646      4.20166      8.69499         0.019223     -0.129036     -0.006335
Ni	      3.98215      6.22851      6.51088        -0.007441      0.038434     -0.031128
O	      5.99489      4.38171      8.74459        -0.091345      0.115076      0.022500
O	      2.09797      2.07326      1.90601         0.024603      0.090526      0.061537
O	      4.13078      4.19703      2.29601        -0.225750     -0.033166     -0.065315
O	      4.02634      2.13214      4.33992        -0.024834     -0.061497     -0.047347
O	      6.04192      4.11026      4.38182        -0.049229      0.033946      0.003891
O	      6.17435      2.10970      6.67815         0.060288      0.012409      0.026685
O	      8.07796      4.03577      6.52612        -0.018887      0.076350      0.066103
O	      1.97091      4.28964      4.44856        -0.050763      0.010903      0.019194
O	      3.89281      6.20886      4.40265         0.045154      0.016123     -0.118253
O	      3.88986      4.16814      6.34917        -0.142834     -0.061273     -0.066456
O	      6.03429      6.32529      6.67388         0.033628      0.178307     -0.035102
O	      7.95516      6.37079      8.95034        -0.007674      0.086576     -0.033465
O	      1.93133      6.18990      6.36478        -0.066631     -0.068779     -0.100257
O	      3.98138      8.30789      6.51644         0.191223      0.057433     -0.001481
O	      4.03620      6.18185      8.59577         0.080876     -0.223573      0.123471
O	      6.08818      8.29438      8.48080         0.103990     -0.199335     -0.160436
O	      6.05416      6.38248     10.66614         0.013774     -0.007761     -0.117574
O	      7.97514      8.20706     11.20239         0.026824     -0.134557      0.029017
