# total energy = -208.66356370 eV
 
CRYSTAL
PRIMVEC
0.040535 6.214705 6.325241 
6.228164 -0.014400 6.379915 
4.138372 4.166289 0.004178 
PRIMCOORD
36 1
Li	      2.13800      8.23836      6.40365        -0.026411     -0.018471     -0.015038
Li	      2.23352      6.16896      8.49760        -0.008676     -0.007688      0.080578
Li	      6.32064      6.20783      4.32261        -0.029612     -0.071920      0.007676
Li	      8.20408      6.34575      6.38311        -0.007393     -0.021911     -0.018768
Li	      6.12368      4.39882      6.27012        -0.012171      0.039467      0.047923
Li	      8.26225      6.17395     10.53649         0.036445      0.027579     -0.085800
Li	      4.23806      6.16660      6.60581        -0.015852     -0.049637      0.051578
Li	      4.07498      4.23359      8.34789         0.018384      0.005012      0.033780
Li	      6.15482      6.32805      8.33526         0.015420     -0.013295      0.052924
Ti	      8.28619      4.20903      8.35002        -0.082069      0.061278      0.111599
Mn	      0.11880      6.16813      6.29319        -0.302393      0.207684      0.095491
V	      4.12900      8.12022      4.15629         0.022030     -0.115265     -0.395092
Fe	      6.15721      2.14155      4.26547         0.041328      0.117304      0.085090
Cu	      6.27625      8.27481      6.39872         0.072556     -0.246029      0.042785
Ni	      8.25059      4.18478      4.25044        -0.131500      0.068457      0.080049
Ni	      6.29239      2.03721      8.35356         0.065819      0.027835      0.094971
Ni	      4.18738      8.19511      8.52300         0.039069      0.057917      0.153364
Ni	      4.11915      4.17880      4.32432         0.130412      0.022086     -0.268994
O	      6.22889      6.38027      6.36678         0.031331      0.525825     -0.063459
O	      2.09342      2.20663      2.06116        -0.093398      0.165874     -0.067038
O	      4.09591      4.10608      1.99934        -0.084559      0.079802     -0.163850
O	      4.18883      2.13740      4.26869        -0.166477     -0.229926     -0.025758
O	      6.18247      4.09320      4.36721         0.089874      0.103531      0.040808
O	      6.33031      1.84443      6.29260         0.080282     -0.354359      0.017176
O	      8.41140      4.12143      6.42447         0.192764     -0.050651     -0.043944
O	      1.93880      4.16103      4.00795        -0.048874      0.037444      0.020599
O	      4.15719      6.34367      4.14030        -0.018581      0.117534      0.061080
O	      4.03486      4.21511      6.28519        -0.325234     -0.053646      0.345387
O	      6.28670      4.13842      8.61664         0.184005      0.038509     -0.033997
O	      8.41299      6.08568      8.45384        -0.093339     -0.294259     -0.042557
O	      1.98421      6.04320      6.35515         0.055093     -0.194152     -0.074245
O	      4.29193      8.33205      6.13709         0.177109      0.152732      0.257066
O	      4.17508      6.23395      8.57644        -0.004292     -0.074807     -0.180003
O	      6.24429      8.26065      8.72271         0.144431     -0.058740     -0.335861
O	      6.24713      6.13107     10.77131         0.120983      0.018534      0.071617
O	      8.56561      8.29070     10.63094        -0.066502     -0.019647      0.062863
