# total energy = -51.69762539 eV
 
CRYSTAL
PRIMVEC
4.112779 0.003990 -0.004154 
0.004035 -0.003212 -4.085951 
2.062709 4.330733 -2.041440 
PRIMCOORD
8 1
Li	      6.16565      4.33125     -6.12353         0.011250      0.002756      0.000836
Li	      2.08472      2.18474     -4.09768         0.008012      0.006782     -0.010705
Ti	      4.22013      2.15895     -2.11454         0.068475     -0.008075     -0.070876
Ni	      4.10136      4.32502     -4.07369        -0.003107      0.011923      0.011103
O	      2.02509      2.10198     -2.04068        -0.117466      0.111203     -0.022213
O	      4.08661      4.08670     -2.02164         0.001873     -0.128333      0.003722
O	      4.12188      2.21649     -4.06263         0.003039     -0.118753      0.079570
O	      4.08063      0.22846     -2.02642         0.027925      0.122497      0.008562
