# total energy = -208.61995883 eV
 
CRYSTAL
PRIMVEC
0.016742 6.157855 6.526826 
6.152567 -0.008265 6.553332 
4.080539 4.100842 0.016184 
PRIMCOORD
36 1
Li	      4.11343      2.07558      2.34052        -0.004520     -0.002389      0.062721
Li	      4.07690      0.07589      4.40069        -0.051937      0.017131     -0.015380
Li	     10.11324      6.11965      8.74335         0.010042     -0.017752      0.012022
Li	      8.27173      4.20253      8.72343         0.014349     -0.007077      0.019355
Li	      4.11030      4.02592      4.35411        -0.042718     -0.005219     -0.013976
Li	      4.08181      2.12121      6.55286        -0.050492     -0.009480      0.002043
Li	      6.12919      4.15017      6.36836         0.016399     -0.032659     -0.021237
Li	      8.21132      6.14649     10.75749         0.048964     -0.029270     -0.036097
Li	      6.21519      6.19556      8.58460        -0.019587     -0.002435     -0.045990
Ti	      6.19307      4.14170     10.75443         0.248744     -0.126883     -0.336475
Mn	      4.06395      4.09236      0.10623        -0.192930      0.305769      0.016747
V	      2.01063      2.09689      0.15093        -0.326912      0.284192      0.243465
Fe	      4.14977      6.03917      6.54155        -0.113360      0.195807     -0.104599
Cu	      2.10075      4.05919      6.51287        -0.010121      0.114452      0.026365
Cu	      8.16849      8.16668      8.71886         0.073769      0.109811      0.066466
Ni	      6.12883      2.02927      4.41516        -0.114652      0.076913      0.010581
Ni	      6.11836      4.05297      2.26904        -0.074693      0.127308      0.155150
Ni	      2.10595      2.03088      4.33981         0.149510     -0.054953     -0.075533
O	      8.17194      6.33814      8.76230        -0.009403     -0.261881      0.014630
O	      2.05323      1.99780      1.98699        -0.026872      0.104644     -0.281311
O	      4.10600      4.09650      1.98650        -0.111470      0.032726     -0.181113
O	      4.09138      2.02718      4.30712        -0.009103     -0.014666     -0.064465
O	      6.15910      4.13461      4.30917        -0.011492     -0.078637      0.104645
O	      6.20536      1.92623      6.52089         0.162938     -0.145142      0.096047
O	      8.28837      4.01106      6.67225         0.206446     -0.132368     -0.037660
O	      1.94153      4.05533      4.19090        -0.377086      0.168169      0.022082
O	      4.14297      6.30075      4.48112        -0.112607      0.073039      0.081588
O	      4.03927      4.14842      6.37931         0.063685     -0.215199     -0.052027
O	      6.09403      6.21098      6.44955         0.182328     -0.121961      0.163546
O	      5.99534      4.13362      8.90130         0.082764      0.055508      0.257586
O	      1.99928      6.12180      6.61637         0.105894     -0.008960     -0.082374
O	      4.10815      8.26308      6.53863        -0.049975     -0.144392     -0.032841
O	      4.09090      5.97406      8.54733         0.157468      0.071521      0.057884
O	      6.28991      8.18352      8.93017        -0.044875     -0.166279     -0.058463
O	      6.16204      6.06888     11.17835         0.029806     -0.165027      0.024952
O	      8.25759      8.16144     11.30634         0.201699      0.005640      0.001664
