# total energy = -209.64109982 eV
 
CRYSTAL
PRIMVEC
0.050671 6.003238 6.417248 
6.438455 0.028133 6.437661 
4.339735 4.062056 -0.027942 
PRIMCOORD
36 1
Li	     10.65187      4.11109      6.34127         0.017537     -0.053468      0.006624
Li	      8.60077      2.15781      6.41553        -0.042726     -0.018813     -0.014147
Li	      2.34859      6.03669      8.58883         0.016493     -0.001679      0.004088
Li	      4.18922      1.93184      2.12262        -0.010314     -0.049494     -0.019577
Li	      4.36191      5.98856     10.67548        -0.035464      0.073263     -0.042267
Li	      8.64370      4.02028      8.45476         0.014050      0.031104     -0.031656
Li	      6.62286      4.09503      6.39306         0.030653      0.031282     -0.039151
Li	      4.34714      6.00625      6.55499        -0.042776      0.009468      0.100939
Li	      6.38215      6.00183      8.67152        -0.056669      0.000330      0.011676
Ti	      4.40674      4.05403      4.18772         0.131873      0.012347     -0.202046
Mn	      8.68604      6.05517      6.41597        -0.063675      0.012616     -0.080506
V	      6.40277      8.18500      6.50797         0.028146      0.055058      0.095147
Fe	      0.10381      2.02265      2.08751         0.020021     -0.115985     -0.138997
Cu	      6.55653      8.02183     10.73813        -0.408852      0.164034      0.064128
Cu	      2.20613      2.01926      4.23092         0.021916     -0.192926      0.057883
Cu	     10.75281      8.11843     10.67395        -0.004927      0.175948      0.134786
Cu	      8.55461      6.06875     10.68558         0.535621     -0.319632      0.083381
Cu	      4.37025      4.08535      8.56458         0.029229     -0.119987     -0.055410
O	      4.35244      5.92059      8.59121         0.004758      0.352895      0.022264
O	      6.62221      6.02139     10.71023        -0.079457      0.049920     -0.062359
O	      8.45702      8.01293     10.66897        -0.040617      0.024494      0.155887
O	      2.06214      2.01134      2.24109         0.014847      0.028769      0.079621
O	      4.27659      4.04581      2.32541        -0.022568      0.019664      0.276370
O	      4.51259      2.07759      4.41929         0.191874     -0.053914     -0.111099
O	      6.32004      4.08247      4.31217         0.086022     -0.095742     -0.013577
O	      6.30132      2.05502      6.58111         0.042489      0.010668      0.004477
O	      8.63668      4.20648      6.43412         0.049331     -0.153869     -0.053911
O	      2.36360      3.99996      4.41945        -0.089930      0.402434     -0.174905
O	      4.14786      6.05755      4.20586        -0.298938     -0.361048      0.019537
O	      4.19720      3.97680      6.29707        -0.015105      0.052648     -0.130975
O	      6.71599      6.15869      6.20767         0.044415      0.029900     -0.078602
O	      6.42369      4.01180      8.73360        -0.005634      0.148977      0.048459
O	      8.70537      6.22247      8.31982        -0.046255     -0.156239      0.057740
O	      2.23449      5.86955      6.48302        -0.010240      0.008035      0.028604
O	      4.60629      8.01731      6.26551        -0.028875      0.010045     -0.033545
O	      6.50312      7.97931      8.24868         0.023746     -0.011104      0.031120
