# total energy = -207.56210013 eV
 
CRYSTAL
PRIMVEC
-0.000612 6.212318 6.148494 
6.251816 -0.002475 6.150400 
4.178697 4.153391 -0.012403 
PRIMCOORD
36 1
Li	      6.24112     10.26696      8.12156         0.018564     -0.023053     -0.033830
Li	      4.26964      8.35145      8.10492         0.056726      0.010621      0.104410
Li	      6.25033      2.09580      8.14428         0.004781      0.033827      0.031921
Li	      2.09975      4.13337      2.02650         0.011811     -0.009546      0.030482
Li	      6.25702      4.18102      6.24916        -0.032292      0.040339     -0.001828
Li	      6.20282      4.17786     10.21809         0.016682     -0.060354     -0.035505
Li	      6.17513      8.31251      6.25937         0.020448     -0.010987      0.010272
Li	      4.16570      6.28662      6.26602        -0.023589      0.013740      0.002033
Li	      6.19153      6.17340      8.17102        -0.001217     -0.010423     -0.015559
Ti	      8.34757      6.29957      6.25122        -0.158657      0.291327     -0.054087
Mn	      8.35160     10.32136     10.20652        -0.008273      0.108355     -0.298301
V	      1.93476      2.13928      4.00913        -0.148459     -0.005767      0.005132
Fe	      8.26157      6.18492     10.28832         0.304519     -0.183748     -0.332040
Ni	      4.20215     10.31149      6.21221         0.058542      0.064654      0.055546
Ni	      2.12613      2.06657      0.07239        -0.108091      0.025731      0.164352
Ni	      6.25776      8.29242     10.17287        -0.155644      0.063644      0.102836
Ni	      4.21744      4.12111      4.01921        -0.130726      0.031584     -0.219208
Ni	      4.19469      4.17975      8.18737        -0.122253     -0.356878     -0.226348
O	      6.07173      4.14306      8.19377         0.268960      0.073446      0.015866
O	      2.07842      2.10455      2.23047        -0.038135      0.030509     -0.031916
O	      4.18848      4.15036      2.01724        -0.045970      0.040285     -0.062408
O	      4.11905      2.06655      4.13083        -0.026859     -0.212615     -0.026829
O	      6.27669      4.30617      4.07060         0.098223      0.130169      0.019904
O	      6.16555      1.98103      6.10262         0.016924     -0.092476      0.075918
O	      8.33515      4.20382      6.02617        -0.059449     -0.030471     -0.012921
O	      2.12213      4.05288      4.06841        -0.059295     -0.040578     -0.046155
O	      4.29430      6.18925      4.11877         0.220337      0.159504     -0.008664
O	      4.20761      4.00658      6.06127         0.065367     -0.158587      0.164426
O	      6.40651      6.23880      5.93398        -0.035934     -0.000769      0.029319
O	      8.32954      6.26964      8.16132        -0.008652     -0.265305     -0.002146
O	      2.11238      6.24891      6.03351         0.102072     -0.123077      0.355881
O	      4.11525      8.37863      6.18260         0.126075      0.058859      0.016661
O	      4.19218      6.09217      8.31251         0.050668      0.441669      0.318411
O	      6.44641      8.28155      8.22033        -0.118408     -0.026808     -0.161989
O	      6.30187      6.21667     10.32881        -0.234065     -0.147922      0.050207
O	      8.31637      8.21350     10.27424         0.075268      0.141101      0.016155
