# total energy = -221.51358381 eV
 
CRYSTAL
PRIMVEC
0.003257 6.302070 6.146721 
6.261013 -0.006237 6.156473 
4.175608 4.209048 -0.005745 
PRIMCOORD
36 1
Li	      4.17279     10.43402      6.17461         0.006905     -0.081978      0.027236
Li	      2.15572      8.38727      6.15713         0.043411      0.006584      0.006826
Li	      0.05125      2.11739      2.06141         0.016481      0.002759      0.005632
Li	      6.22864      6.28349      4.06191        -0.025672      0.008029     -0.014737
Li	      4.14963      4.24538      4.05913        -0.026552      0.026152      0.003044
Li	      6.25023      4.19869     10.18276        -0.006260      0.006344     -0.046011
Li	      6.22000      8.40907      6.20254        -0.017991      0.000887      0.022933
Li	      4.25621      4.20959      8.21772         0.074979     -0.007197     -0.001253
Li	      6.24046      6.28914      8.21444         0.013287      0.008334     -0.027761
Ti	      2.08772      6.28430      4.20497         0.167982     -0.157809      0.217382
V	      4.14620      2.17097      6.17630        -0.025982      0.014717     -0.004381
Fe	      6.29735      8.40828     10.18779        -0.067752     -0.042632      0.012596
Fe	      2.10823      4.09183      2.06624         0.015287      0.029512     -0.047357
Fe	      6.26035      4.19941      6.17625        -0.042378      0.027767     -0.018477
Fe	      4.23230      6.38355      6.16252         0.014061     -0.011898      0.039213
Co	      4.15021      2.10812      2.05209         0.003868      0.007332     -0.053524
Co	      4.23320      6.25171     10.23030         0.255584     -0.259356     -0.185429
Ni	      6.19350      4.23482      2.04170        -0.049948      0.050574     -0.020155
O	      2.19023      2.11282      2.05684         0.065569      0.019169      0.006278
O	      4.12438      4.05579      2.03550        -0.058285     -0.083261      0.000780
O	      4.19860      2.09887      4.20801         0.000555      0.314601      0.004701
O	      6.34422      4.13769      4.11744        -0.280181      0.003645      0.179103
O	      6.13920      2.17073      6.09852        -0.013391     -0.016919     -0.021123
O	      8.31703      4.30236      6.10261        -0.010443      0.138718      0.539701
O	      2.05491      4.37594      4.01311        -0.003236      0.227526      0.096132
O	      4.04894      6.32897      4.16967        -0.169001     -0.016958     -0.023507
O	      4.22282      4.17140      6.18882        -0.005398     -0.001935     -0.021924
O	      6.28728      6.26506      6.10849         0.027180     -0.011540      0.016136
O	      6.37946      4.17297      8.12405        -0.050139      0.017486      0.017149
O	      8.36820      6.24880      8.04314        -0.008360     -0.013962     -0.001949
O	      2.14484      6.28939      6.09241        -0.053730      0.008489     -0.354311
O	      4.18598      8.31814      6.29455        -0.024293      0.080126      0.091427
O	      4.13670      6.42500      8.22106         0.103638      0.136941     -0.475933
O	      6.09250      8.46726      8.24178        -0.065136     -0.113318     -0.029957
O	      6.34273      6.36617     10.24922         0.184952     -0.051045      0.042240
O	      8.29921      8.28351     10.19568         0.010387     -0.265883      0.019282
