# total energy = -221.84452270 eV
 
CRYSTAL
PRIMVEC
-0.006279 6.255951 6.395171 
6.278335 0.017393 6.371745 
4.181539 4.150725 0.015372 
PRIMCOORD
36 1
Li	      6.25621      2.09155      4.23919        -0.007603     -0.016332     -0.040329
Li	     10.41777      6.30268      8.57039        -0.074891      0.009190      0.027860
Li	      8.26332      4.24343      8.56677        -0.023714      0.029358      0.043358
Li	      4.13331      4.18190      4.38250         0.004522     -0.030204      0.045497
Li	      8.28702      6.32177      6.45864        -0.053905      0.002227      0.077292
Li	      6.32163      4.15600     10.54159         0.004291     -0.015466     -0.098633
Li	      2.19256      4.11462      6.36509         0.064584     -0.061943      0.027926
Li	      4.21742      6.18198      6.31158         0.026024     -0.037166     -0.036218
Li	      6.36993      6.21800      8.42868         0.027288      0.018159     -0.086780
Ti	      8.41477     10.36007     10.65979         0.143255     -0.140251     -0.028990
V	      6.27937      0.09447      6.36753         0.051402     -0.022778      0.061939
Fe	      6.25929     10.39257      8.54334         0.085957     -0.077504     -0.039256
Fe	      4.22630      8.35448      8.52478         0.048801     -0.039328     -0.021500
Fe	      6.18278      6.36122      4.32444        -0.039195      0.019200      0.015641
Fe	      6.14504      4.22777      6.49399        -0.029277     -0.077978     -0.126906
Fe	      2.22623      6.13950      4.17135        -0.079186      0.096021      0.023293
Co	      8.37307      8.24973      8.48394         0.074166      0.033498     -0.227353
Ni	      2.08971      2.07887      0.02576        -0.013582      0.029063     -0.013508
O	      2.17620      2.00528      2.15030        -0.013213      0.056522      0.092724
O	      4.26953      4.12583      2.04099        -0.058861      0.035265     -0.060486
O	      4.12374      1.96050      4.15189         0.052852     -0.134552      0.004794
O	      6.38463      4.20052      4.25785         0.078109     -0.060405      0.012244
O	      6.28840      1.95655      6.38786        -0.111061      0.014368     -0.049046
O	      8.38671      4.16275      6.25885        -0.007646      0.136596     -0.100205
O	      2.09390      4.16781      4.26915        -0.004801      0.008263     -0.018204
O	      4.18072      6.26032      4.27742         0.081224     -0.024046      0.011966
O	      4.24851      4.13553      6.38176        -0.049906      0.072203      0.222505
O	      6.26427      6.19881      6.28456         0.009731     -0.036124      0.026282
O	      6.25724      4.17119      8.38839        -0.438853     -0.034693      0.177514
O	      8.33865      6.24928      8.65945         0.006814      0.255463     -0.012802
O	      1.99821      6.29348      6.38638        -0.048289     -0.097370     -0.002876
O	      4.11853      8.54891      6.50759         0.106435      0.068283     -0.022867
O	      4.14159      6.27877      8.62146         0.020708     -0.072354      0.103014
O	      6.22730      8.41786      8.54368         0.330564     -0.117029     -0.042360
O	      6.20579      6.26993     10.76510        -0.158162     -0.005869      0.063153
O	      8.35569      8.40282     10.68395        -0.004582      0.217713     -0.008681
