# total energy = -224.52954662 eV
 
CRYSTAL
PRIMVEC
-0.000433 6.343551 6.255313 
6.195728 -0.001010 6.256090 
4.137466 4.236710 -0.007792 
PRIMCOORD
36 1
Li	      6.21722      4.26170      2.13387         0.086218      0.030301     -0.080010
Li	      4.15645      8.41919      8.39524         0.016265     -0.063678     -0.044598
Li	      4.10703      0.02685      4.15982         0.019646      0.032729     -0.044069
Li	      8.26205      4.26530      8.35587        -0.041803      0.024759     -0.027286
Li	      4.11803      4.20632      4.12923        -0.041902     -0.023391      0.099599
Li	      4.13210      2.11693      6.24845        -0.025551      0.044808     -0.006422
Li	      6.21320      4.24245      6.24702        -0.012213      0.050908     -0.004990
Li	      8.28474      6.33408     10.36375         0.000377      0.013995      0.043815
Li	      8.28090      8.41960      8.36124        -0.015392      0.006027     -0.031451
Ti	      4.10524      6.16110      6.33444        -0.085705     -0.678537      0.253401
V	      4.09305      4.24454      0.08172        -0.061693      0.162358     -0.178832
Fe	      8.21901      2.19440      6.28709         0.044029     -0.202406      0.018563
Fe	      6.14125      2.29724      4.08687         0.015881     -0.112280      0.018807
Fe	      2.17078      2.06498      4.08646        -0.027245     -0.004310      0.154832
Fe	      6.17505      4.20415     10.35607        -0.071075      0.121714      0.081456
Fe	      6.35188      6.33575      8.35274        -0.313424     -0.113994     -0.060907
Co	      6.21665      8.45976      6.27636        -0.049096      0.012927     -0.098800
Co	     10.26356      6.39327      8.34676        -0.400664      0.110483     -0.077208
O	      1.93028      2.12290      2.08521         0.599219     -0.000973     -0.077454
O	      4.15922      4.28320      1.85978        -0.006876     -0.248229      0.012400
O	      4.13000      2.13407      4.14628         0.067312      0.011798     -0.038561
O	      6.19941      4.23989      4.13812        -0.019237      0.109456     -0.039216
O	      6.21736      2.02294      6.15286        -0.029885     -0.125657     -0.029230
O	      8.37574      4.15873      6.25214         0.087079      0.055320      0.025628
O	      1.98723      4.10573      4.23037         0.226747      0.100650      0.502871
O	      4.17722      6.41622      4.27195         0.030943     -0.047651      0.139682
O	      4.11412      4.32702      6.24231        -0.275560      0.396984      0.032595
O	      6.10379      6.32454      6.25306        -0.071116     -0.062688     -0.038252
O	      6.17817      4.27233      8.41092         0.057508      0.268997      0.033407
O	      8.26217      6.34348      8.32503        -0.084522     -0.094247      0.032425
O	      2.10698      6.41741      6.27112        -0.019783      0.068878     -0.013359
O	      4.08709      8.54727      6.21951         0.414074     -0.041262      0.012071
O	      4.22809      6.36307      8.18558        -0.000386      0.010920     -0.209429
O	      6.21147      8.35515      8.38739         0.036629      0.111337     -0.385540
O	      6.22491      6.30447     10.50649         0.020585      0.037578      0.011571
O	      8.24932      8.46971     10.52154        -0.069384      0.036378      0.012492
