# total energy = -219.57126065 eV
 
CRYSTAL
PRIMVEC
-0.022321 6.464003 6.156497 
6.254924 -0.019780 6.153431 
4.145765 4.284205 0.011213 
PRIMCOORD
36 1
Li	      6.18368      4.25155      2.16090        -0.061168     -0.001871     -0.040144
Li	      4.06108      0.11163      4.09470         0.018931      0.074454     -0.003974
Li	      6.12276      2.21976      4.10296        -0.058402      0.011596      0.033538
Li	      4.18754      6.36013      2.08506         0.005088     -0.103220     -0.061134
Li	      4.18565      4.22920      4.19383        -0.021721     -0.015007      0.027519
Li	      4.21178      2.27012      6.04155         0.057895      0.055781      0.063191
Li	      4.17658      8.52080      4.15403         0.018103      0.008945      0.028356
Li	      2.11581      4.31177      6.11669        -0.034167      0.033166      0.031438
Li	      4.14485      6.38770      6.15462        -0.017333     -0.022525      0.054203
Ti	      6.23636      6.45460     12.20828         0.030175      0.124790     -0.119127
V	      6.19657      6.49263      8.11353         0.032413      0.064800      0.170077
Fe	      8.31213      8.56863     12.24331        -0.109898     -0.024771      0.047910
Fe	      2.08152      4.27520      2.10049        -0.091260      0.040442     -0.097954
Fe	      6.22811      6.34307      4.17106        -0.161418      0.121020     -0.014850
Fe	      2.25861      6.40353      4.11257        -0.206565     -0.019838     -0.010116
Fe	      4.10759      4.38063      8.20491         0.071384     -0.092592      0.229674
Cu	      6.17654      4.22501      6.10867         0.067320      0.003462     -0.122294
Ni	      4.16028      2.16143      2.09806         0.082833     -0.090820     -0.027075
O	      2.06286      2.23495      2.04752        -0.118110     -0.042202     -0.028721
O	      4.06491      4.26014      1.90530         0.116981      0.113854     -0.069676
O	      4.01507      2.15745      4.09997         0.096018      0.021157      0.156232
O	      6.19197      4.38131      4.17671         0.019577     -0.134307     -0.077806
O	      6.30995      1.91221      6.12532        -0.051067     -0.276594      0.013240
O	      8.33903      4.15936      6.15950         0.085390      0.049774      0.031910
O	      2.07851      4.34550      4.04636         0.032325     -0.063442      0.094177
O	      4.18085      6.45694      4.13743         0.167270     -0.000703     -0.006942
O	      4.21519      4.28788      6.29969        -0.075282      0.042526     -0.182765
O	      6.23549      6.57907      6.30107        -0.015105      0.110171      0.019456
O	      6.26036      4.43220      8.11233        -0.038921      0.048447      0.124168
O	      8.23877      6.40982      8.26489        -0.012034      0.012516     -0.076257
O	      1.97019      6.50005      6.13003        -0.006817     -0.074512      0.014125
O	      4.04933      8.74842      6.19129         0.082490     -0.010058     -0.099688
O	      4.24954      6.39974      8.26069         0.030323      0.051489     -0.045812
O	      6.24756      8.47506      8.26425         0.038518     -0.030043     -0.033640
O	      6.29089      6.38798     10.22648         0.029137      0.005165      0.035929
O	      8.35723      8.42992     10.25094        -0.002900      0.008952     -0.057166
