# total energy = -219.67071859 eV
 
CRYSTAL
PRIMVEC
0.008030 6.386501 6.240189 
6.167793 0.033562 6.214594 
4.140281 4.268319 -0.005472 
PRIMCOORD
36 1
Li	      2.06546      2.15966      0.04633        -0.013377      0.053202     -0.024871
Li	      2.06209      0.03404      2.08898        -0.005026     -0.004956      0.028476
Li	      8.15219      4.31729      8.37061         0.027401      0.050033      0.022220
Li	      2.01755      2.20450      4.14750        -0.010434      0.093489      0.016385
Li	      6.20118      4.32528      6.27612         0.014875      0.045740     -0.004699
Li	      6.26482      4.29787     10.27493         0.081721      0.053936      0.026480
Li	      8.24217      6.33947     10.28444        -0.010410     -0.051542     -0.078318
Li	      4.19979      4.26443      8.28483         0.040474     -0.015762     -0.002634
Li	      6.20863      6.30483      8.32717        -0.006516     -0.060409      0.032833
Ti	      0.08052      6.36002      6.23883         0.022220      0.001449     -0.101308
V	      6.33278      8.55785     10.30440         0.004856     -0.034348     -0.046761
Fe	      4.00643      2.09642      2.08539        -0.005789      0.007508      0.030314
Fe	      6.23703      2.37262      8.34959        -0.013410     -0.160191     -0.001976
Fe	      4.06123      4.32738      4.11405         0.191990     -0.054609     -0.016161
Fe	      8.15662      6.37191      6.32870         0.005835      0.082753     -0.123488
Fe	      4.15445      6.36391      6.24508        -0.045449      0.042171     -0.063425
Ni	      8.21999     10.67506     10.33778        -0.030346     -0.019010     -0.076292
Ni	      6.20533      8.52276      6.23363        -0.018178     -0.013064      0.043006
O	      2.05829      2.12456      2.08567        -0.029685     -0.018453     -0.010682
O	      4.12507      4.23420      1.99221         0.011149     -0.019724     -0.047932
O	      4.22873      2.16264      4.15789        -0.074800      0.073574      0.083011
O	      6.13326      4.12220      4.14369        -0.108807     -0.006892      0.002821
O	      6.14284      2.02865      6.19486         0.069664     -0.066534     -0.043577
O	      8.36032      4.38235      6.13440         0.085889     -0.093804      0.137021
O	      2.16550      4.25463      4.18940        -0.160386      0.006920     -0.085839
O	      4.14449      6.33364      4.18680        -0.001415      0.056123      0.020007
O	      4.10493      4.31365      6.17137         0.167856     -0.085610      0.089877
O	      6.18080      6.44286      6.22610        -0.030564     -0.106736     -0.001310
O	      6.18641      4.22179      8.30946         0.006143      0.238697     -0.023792
O	      8.36252      6.43586      8.21188        -0.048748      0.021073      0.149273
O	      2.02168      6.36416      6.22090        -0.173630      0.091659      0.008301
O	      4.12939      8.58461      6.27509        -0.128212      0.059957     -0.109083
O	      4.10219      6.48962      8.22437        -0.042291     -0.063573      0.020566
O	      6.07038      8.52537      8.39049         0.029604     -0.026910      0.063900
O	      6.16022      6.51103     10.48003         0.119148     -0.012211      0.061695
O	      8.10191      8.59485     10.37745         0.078648     -0.063946      0.025960
