# total energy = -51.03254082 eV
 
CRYSTAL
PRIMVEC
0.000584 2.107017 2.107039 
3.971104 0.000901 0.001006 
-0.000031 4.282457 -4.282598 
PRIMCOORD
8 1
Li	      0.00178      2.25421      1.95339        -0.005729     -0.005821      0.013899
Li	      0.00180      4.09544      0.11267        -0.006392      0.012177     -0.006342
Ti	      2.11275      4.27433     -2.14998         0.335597      0.005255      0.004736
Ni	      1.97210      2.10969     -0.03146         0.004852      0.027441      0.025158
O	      3.95837      2.12517     -0.01689        -0.002106     -0.002307     -0.002513
O	      1.96622      2.25621     -2.24533         0.011781      0.094474     -0.126650
O	      3.92402      4.27420     -2.15069        -0.350404     -0.004912     -0.003178
O	      1.96618      4.17926     -4.16857         0.012401     -0.126308      0.094890
