# total energy = -225.75574249 eV
 
CRYSTAL
PRIMVEC
0.016696 6.330710 6.287350 
6.310801 0.054557 6.249501 
4.213394 4.201523 0.030132 
PRIMCOORD
36 1
Li	      8.34497      2.14839      6.31743        -0.052414     -0.035751      0.025035
Li	      2.10326      6.35508      8.30042        -0.023610      0.008973     -0.041339
Li	      6.30996      2.25301      8.24664         0.001591     -0.057050     -0.084051
Li	      8.29551      4.32080      8.25801         0.007701      0.019594     -0.047475
Li	      8.43549      6.29125      6.44587         0.057207     -0.051756      0.049196
Li	      6.38950      4.28096      6.37798         0.033057      0.080065     -0.013038
Li	      6.35275      4.25346     10.32472         0.054193      0.024520     -0.003128
Li	      4.25832      6.31613      6.29556         0.001075      0.006075      0.008289
Li	      6.39052      6.26625      8.27815         0.023341      0.015350     -0.064158
Ti	      4.11930      8.42846      8.28209        -0.123725      0.091936     -0.107079
V	      6.23064      6.34532      4.24862        -0.115636      0.067763      0.090296
Fe	      8.47391     10.51856     10.56779        -0.122212      0.088600     -0.034687
Fe	      6.30450      2.17569      4.26109        -0.007327      0.031294     -0.134293
Fe	      4.23612      4.25961      4.18305        -0.030156     -0.001426     -0.047382
Fe	      2.20235      6.27839      4.16359        -0.095074      0.044360      0.084977
Fe	      6.35590      8.42399      6.36102        -0.042482     -0.004425     -0.112747
Fe	      4.39617      4.24253      8.28552        -0.253824      0.069575     -0.023084
Co	     10.51323      4.26986      6.30301        -0.019664     -0.060065      0.016571
O	      2.22779      2.08504      2.18151         0.091378      0.011999      0.019537
O	      4.22172      4.07133      2.06921         0.008606     -0.084917     -0.139262
O	      4.18513      2.09041      4.08305        -0.000551     -0.123844     -0.026949
O	      6.39212      4.19949      4.27244         0.135971      0.016392      0.009971
O	      6.31483      1.98861      6.18611        -0.024257     -0.044550      0.195414
O	      8.56848      4.23977      6.20967         0.035623     -0.029302      0.106599
O	      2.09082      4.25995      4.25550        -0.047781     -0.093650     -0.036448
O	      4.23136      6.34847      4.21182         0.201168      0.079251      0.032385
O	      4.12201      4.28235      6.30652         0.064856      0.010020      0.115807
O	      6.32908      6.44770      6.18683        -0.002818     -0.084545     -0.031237
O	      6.25526      4.28480      8.31860         0.241087      0.018249     -0.003084
O	      8.41642      6.44709      8.48452        -0.028090      0.009903     -0.093258
O	      1.97981      6.27187      6.19812        -0.019952      0.087197      0.066887
O	      4.24865      8.51873      6.39324         0.021787      0.007160      0.121384
O	      4.23335      6.42659      8.45284         0.003035      0.009988     -0.032523
O	      6.24646      8.45538      8.40910         0.006588     -0.012049      0.093736
O	      6.31926      6.43983     10.61177         0.032094     -0.063353      0.008996
O	      8.36939      8.48692     10.38836        -0.010785     -0.051581      0.030146
