# total energy = -223.49340941 eV
 
CRYSTAL
PRIMVEC
0.030296 6.276759 6.370313 
6.297120 0.032488 6.368489 
4.201915 4.186854 0.017511 
PRIMCOORD
36 1
Li	      4.20253      4.20523      0.07035         0.031768     -0.019229      0.035563
Li	      4.17971      2.10964      2.13762        -0.047224      0.005188      0.028870
Li	      6.32056      2.15250      8.40119        -0.045277      0.020859     -0.045549
Li	      2.15664      2.10414      4.24737         0.038715     -0.022858      0.012819
Li	      4.20483      4.15160      4.35443        -0.007629     -0.012640      0.032528
Li	      4.26031      2.24727      6.34405        -0.000297      0.107461      0.021698
Li	      6.22763      4.14800      6.39427        -0.001513     -0.007943      0.013252
Li	      2.18695      4.18516      6.35983         0.048963      0.032676     -0.060610
Li	      4.24465      4.18656      8.38450         0.029632     -0.010580     -0.003966
Ti	      6.31860      6.39488      8.35503         0.062755     -0.053486     -0.284197
V	      2.21748      4.09864      2.08060         0.076682      0.189271     -0.056943
Fe	      2.04178      0.05745      2.10422        -0.012257      0.068095     -0.022208
Fe	      8.34225      4.27388      4.39594        -0.039900     -0.087515     -0.053039
Fe	      6.24155      2.16584      4.36105         0.046559      0.076525     -0.049793
Fe	      4.23117      8.32826      4.30547        -0.014438     -0.018520     -0.065828
Fe	      2.14671      6.26057      4.25819        -0.014563      0.063100      0.131900
Fe	      4.20845      6.15724      6.36888        -0.165102      0.096693      0.013487
Cu	      2.07713      2.08538      0.04088        -0.012819     -0.068322      0.002127
O	      2.07509      2.18675      2.21699        -0.017514     -0.136304      0.149339
O	      4.02287      4.20464      2.12783        -0.108560      0.008149     -0.005022
O	      4.27554      2.02036      4.30343        -0.002109      0.031569      0.002507
O	      6.38735      4.15774      4.21271         0.029103     -0.120231      0.199747
O	      6.40905      2.11073      6.27275        -0.046141     -0.009178      0.091899
O	      8.40837      4.17698      6.41553         0.005133     -0.028246      0.146010
O	      2.04873      4.24872      4.14734        -0.002295     -0.020332     -0.001235
O	      4.13063      6.33089      4.29792         0.057892      0.014598      0.000967
O	      4.21999      4.28206      6.37388         0.014668     -0.101584      0.036151
O	      6.25525      6.33600      6.50963         0.061104      0.033739      0.320032
O	      6.48211      4.32882      8.56894         0.001126      0.106116     -0.014600
O	      8.32255      6.24128      8.56832        -0.187367     -0.029097     -0.061250
O	      2.13377      6.25788      6.32260         0.072666     -0.011213     -0.291903
O	      4.12529      8.28267      6.27399         0.008277     -0.060438      0.032342
O	      4.34452      6.29145      8.52025         0.191705      0.040257     -0.018246
O	      6.32648      8.30427      8.59528        -0.044024     -0.051171      0.002330
O	      6.31320      6.29462     10.56398        -0.000671     -0.024316     -0.040567
O	      8.45028      8.38623     10.48420        -0.007049     -0.001094     -0.198611
