# total energy = -235.49996559 eV
 
CRYSTAL
PRIMVEC
-0.007471 6.270094 6.238172 
6.414125 0.001862 6.228419 
4.277485 4.175171 -0.000348 
PRIMCOORD
36 1
Li	      2.16212      2.06300      0.13339        -0.002731     -0.016589     -0.169074
Li	      2.19891      0.15655      2.14085        -0.017209     -0.157167      0.002625
Li	      4.09094      2.02928      2.16489         0.092002      0.018853     -0.015141
Li	      4.27156      6.23351     10.25398         0.023416     -0.001818      0.021356
Li	      6.43083      8.35653     10.26733         0.013883     -0.014040      0.016211
Li	      0.16708      2.08667      2.08944        -0.108383      0.005023     -0.041563
Li	      2.14680      2.05597      4.01598         0.018734      0.011775      0.148549
Li	      8.51634      6.31760     10.36849        -0.057068      0.033363      0.024151
Li	      6.37786      6.34859      8.41228         0.008100     -0.031132      0.002914
Ti	      8.56689      6.14233      6.20612         0.093541     -0.081884     -0.109880
Mn	      6.39728      8.32971      6.27617        -0.031946      0.131493      0.222002
Mn	      4.21049      6.31408      6.28123        -0.045138      0.001085      0.103686
V	      0.07275      6.29064      6.24904         0.008504     -0.074748     -0.015026
V	      6.45412      4.13619      6.18092        -0.000011      0.023695     -0.027383
Cr	      8.53292      8.35066      8.33936        -0.055514      0.143699     -0.022153
Fe	      4.30321      4.19593      3.99317         0.014412      0.019271      0.129974
Fe	      6.34236      4.21191     10.33248         0.008395     -0.024377      0.051257
Co	      2.12782      4.09944      2.14229         0.003846     -0.340823      0.174673
O	      2.12515      2.15273      2.07586        -0.055006      0.514490      0.039526
O	      4.20790      4.21342      2.07459         0.101891     -0.002420     -0.184367
O	      4.25138      2.21549      4.28839         0.016067     -0.037494      0.206038
O	      6.29305      4.17746      4.23498         0.029185      0.042783      0.010735
O	      6.28842      2.12242      6.21678        -0.130619      0.003661      0.028593
O	      8.59975      4.24371      6.17347        -0.090500      0.236212      0.179470
O	      2.15858      4.18891      4.29857        -0.052842     -0.010769     -0.249408
O	      4.24282      6.26704      4.34163         0.029161     -0.004423     -0.098188
O	      4.34822      4.19380      6.24548         0.014368     -0.023584      0.028687
O	      6.51034      6.18696      6.25351         0.230070      0.110252     -0.044872
O	      6.37774      4.16688      8.30136        -0.162707     -0.011773     -0.076782
O	      8.54382      6.31582      8.15880         0.022232     -0.135890     -0.119317
O	      2.01581      6.20234      6.28552         0.065707     -0.169732      0.017139
O	      4.26961      8.33480      6.18631         0.004606     -0.053524      0.030406
O	      4.27228      6.20755      8.18722        -0.000733     -0.041523     -0.047872
O	      6.55442      8.32559      8.19896         0.033560      0.006521     -0.146516
O	      6.40932      6.18736     10.50456         0.001664     -0.016624     -0.019777
O	      8.64534      8.36279     10.29107        -0.022939     -0.051843     -0.050674
