# total energy = -234.93040251 eV
 
CRYSTAL
PRIMVEC
-0.012894 6.326632 6.427646 
6.239842 -0.003354 6.418598 
4.147000 4.198522 0.011155 
PRIMCOORD
36 1
Li	      6.20921      6.36987     12.73199        -0.000404     -0.037087     -0.026363
Li	      8.28289      8.38941     12.75007         0.011884     -0.007132     -0.015436
Li	      8.36175     10.43598     10.73941         0.023077     -0.022592     -0.020626
Li	      6.32576      8.34117     10.71271        -0.018129      0.015085      0.002256
Li	     10.36293      6.23633      8.48953         0.021077     -0.004088     -0.007658
Li	      8.30724      4.29560      8.55392        -0.045245      0.002611     -0.014821
Li	      4.18306      4.17060      4.25585         0.007009      0.002693      0.036786
Li	      8.30350      8.35878      8.69397         0.021883     -0.003531     -0.013198
Li	      6.26476      6.29205      8.69144        -0.001807     -0.045601     -0.036949
Ti	      4.09024      2.24896      2.15810        -0.042265      0.128994     -0.036132
Mn	      2.04745      2.08861      4.23043        -0.138430      0.085900      0.055563
Mn	      8.33447      6.26982      6.55938        -0.122616      0.068005      0.024702
Mn	      4.12855      6.32227      6.47145         0.103798      0.065117     -0.009660
V	      6.32673      4.10053      6.53483        -0.118375      0.183169      0.066255
V	      2.08798      4.23149      6.45278        -0.054282     -0.077787      0.004101
Cr	      8.27084      6.34967     10.61104         0.082537     -0.039638     -0.018186
Co	      6.16564      4.29321     10.64553         0.327903     -0.262661      0.041691
Cu	      6.21317      4.21068      2.17920         0.028803      0.024914      0.072578
O	      2.15186      2.07844      2.09247         0.157331      0.036677      0.039027
O	      4.21100      4.12204      2.16847        -0.073364     -0.155385      0.006494
O	      4.00931      2.08404      4.12298        -0.069187     -0.006394     -0.082835
O	      6.16904      4.34580      4.58899        -0.007586      0.081569      0.085014
O	      6.16459      2.20781      6.37726         0.014261     -0.131715     -0.023429
O	      8.22211      4.31534      6.44502         0.154091      0.087807     -0.018349
O	      2.03686      4.16316      4.40823        -0.275608      0.047999     -0.020399
O	      4.21674      6.36717      4.45656        -0.051888      0.237513     -0.019657
O	      4.09850      4.09173      6.46026        -0.011558     -0.125573      0.041201
O	      6.19935      6.30242      6.50333        -0.037818     -0.020534     -0.024855
O	      6.21959      4.20270      8.33022        -0.023711     -0.003872     -0.053437
O	      8.34012      6.27961      8.64869         0.004092     -0.032462      0.021374
O	      2.16635      6.25059      6.24789         0.110039      0.056865     -0.152581
O	      4.23152      8.46302      6.55565        -0.036086     -0.010550      0.140353
O	      4.04471      6.42138      8.41267         0.007428      0.012311     -0.115641
O	      6.11301      8.50528      8.46783        -0.058271     -0.010749      0.034520
O	      6.31075      6.27680     10.68304        -0.152174     -0.242380      0.017598
O	      8.33961      8.32591     10.69101         0.263593      0.102501      0.020700
