# total energy = -232.28501223 eV
 
CRYSTAL
PRIMVEC
0.013506 6.429366 6.317541 
6.128881 0.026908 6.303948 
4.114648 4.306017 -0.010871 
PRIMCOORD
36 1
Li	      6.11911      4.31475      2.18407        -0.026088      0.019281     -0.006765
Li	      6.16471      2.28456      4.17399        -0.051639      0.012671     -0.022012
Li	      4.13267      6.48957      2.23351         0.017674      0.013562      0.011127
Li	      6.06276      6.49988      4.14788         0.022401     -0.007912     -0.036209
Li	      4.08038      4.45659      4.14466         0.109559      0.003799     -0.083102
Li	      6.11697      4.33833      6.25543         0.028064      0.027925     -0.014554
Li	      0.11475      4.17864      4.17256        -0.064073      0.009071     -0.012770
Li	      2.16520      6.26901      4.21096        -0.074711     -0.008691     -0.053345
Li	      2.05430      4.31119      6.07352        -0.023910     -0.030270     -0.074793
Ti	      3.96243      2.29019      6.21164        -0.343941     -0.031927      0.087979
Mn	      8.15508      2.20794      6.28613         0.123647      0.134017      0.209407
Mn	      8.08924      4.27536      4.19321        -0.042381      0.148265     -0.036701
Mn	      4.13698      6.38403      6.20951         0.014791      0.048212      0.063068
V	      0.10800      6.47418      6.29132        -0.291591     -0.117783      0.352453
V	      4.20526      8.59562      8.46026        -0.068651      0.030228      0.043772
Cr	      8.14366      4.36324      8.49025         0.180836     -0.130497     -0.244018
Cu	      6.16821      6.41151      8.46733        -0.054398      0.247107      0.083848
Ni	      8.21793      8.55875      8.46635        -0.114200      0.003177      0.020800
O	      2.13164      2.28855      1.97848        -0.247898      0.026168     -0.235987
O	      4.08326      4.21879      1.97391        -0.063154      0.313671     -0.198569
O	      4.10707      2.00993      4.22975        -0.001073     -0.026176      0.050696
O	      6.24431      4.30081      4.14155         0.080875     -0.028481      0.118493
O	      6.13864      2.03449      6.35701         0.221718     -0.000040     -0.061443
O	      8.25027      4.48281      6.39995         0.028229     -0.025564      0.032360
O	      2.08978      4.30330      4.08582        -0.015706     -0.021736      0.152975
O	      4.09762      6.44430      4.34735        -0.000704      0.014828      0.289421
O	      4.12099      4.14939      6.34030        -0.012243     -0.091835     -0.059088
O	      6.22505      6.47471      6.17282         0.106473      0.022421     -0.172231
O	      6.13915      4.42155      8.43388         0.058850     -0.140361     -0.023400
O	      8.16898      6.44474      8.29773         0.185983      0.032549     -0.060542
O	      2.03811      6.44709      6.33867         0.307566     -0.020822     -0.071465
O	      4.07583      8.67719      6.42001        -0.201795     -0.023545     -0.027017
O	      4.14716      6.43902      8.27838        -0.120126     -0.265176     -0.276073
O	      6.11927      8.43353      8.46067         0.325628     -0.116142      0.039167
O	      6.00177      6.39566     10.81404        -0.017648      0.019618     -0.007447
O	      8.16503      8.74873     10.62132         0.023639     -0.039611      0.221967
