# total energy = -231.91320603 eV
 
CRYSTAL
PRIMVEC
-0.021420 6.259848 6.545785 
6.191303 -0.027160 6.551137 
4.111755 4.162002 -0.001359 
PRIMCOORD
36 1
Li	      6.12894      6.31026     12.95794        -0.024980     -0.072719      0.001948
Li	      8.13505      2.10421      6.43762         0.002839      0.029857     -0.003660
Li	      4.19448      6.16657     10.89977         0.016060      0.047862      0.005262
Li	      6.15914      2.05553      8.53758        -0.048495     -0.033861     -0.186328
Li	      4.07187      4.14848      4.28768        -0.058517     -0.014820      0.032146
Li	      6.22199      4.01178      6.53233        -0.039553      0.000389     -0.007599
Li	      8.18115      6.28550     10.83298         0.047651     -0.077129     -0.049171
Li	      8.26169      8.28383      8.91332         0.105923     -0.051219     -0.021921
Li	      6.18295      6.27815      8.90662         0.022266     -0.041659     -0.020655
Ti	      4.11867      6.21467      6.51422         0.061842     -0.105884     -0.152847
Mn	      4.12288      2.07685      2.21822        -0.048540      0.021195     -0.032301
Mn	      6.17864      6.19905      4.35463         0.009833      0.223589      0.163876
Mn	      2.09557      4.17656      6.59935         0.009083     -0.061487     -0.107147
V	      8.04030      4.21730      8.63078         0.049448      0.145132     -0.124621
V	      6.13273      4.16073      2.26201         0.002381      0.053716     -0.154457
Cr	      6.21924      8.28301     10.93551        -0.015065     -0.209768      0.228585
Cu	      4.17340      2.05342      6.48707        -0.117033     -0.060468     -0.030476
Cu	      6.08648      4.27179     10.93515         0.067021     -0.050138     -0.045829
O	      1.98733      2.15129      2.18193        -0.004634     -0.243096      0.023968
O	      4.11548      4.01893      2.20417         0.164096      0.099551      0.067180
O	      4.17873      2.05412      4.26203        -0.011328     -0.012335     -0.162198
O	      6.18552      4.09490      4.23570        -0.000764     -0.046942     -0.346549
O	      6.08534      2.06352      6.38806         0.166057     -0.023660     -0.130166
O	      8.26345      4.07109      6.83755        -0.005786     -0.078673      0.089113
O	      1.96523      4.16526      4.15877        -0.051209     -0.049893     -0.024782
O	      4.06278      6.38019      4.64247         0.044673     -0.052228      0.257564
O	      4.05189      4.28953      6.54602        -0.021417      0.475148      0.005592
O	      6.18980      6.36168      6.57331        -0.193487     -0.002620     -0.032155
O	      6.28811      4.14489      8.61650        -0.034419     -0.019282     -0.020099
O	      8.30654      5.98796      8.73570        -0.064214     -0.019541      0.111792
O	      2.13766      6.15165      6.71134         0.112982     -0.041795      0.327440
O	      4.26521      8.25203      6.72104         0.024902     -0.097542      0.175768
O	      4.04206      6.37974      8.61585        -0.146731     -0.005782     -0.063803
O	      6.23060      8.34055      8.84258         0.033556      0.280164      0.162804
O	      6.17545      6.24720     10.92215        -0.006184      0.089459      0.016667
O	      8.23942      8.32772     10.93764        -0.048259      0.006480      0.047061
