# total energy = -236.68857889 eV
 
CRYSTAL
PRIMVEC
0.036472 6.206093 6.362916 
6.478556 -0.001083 6.399713 
4.318464 4.160765 0.000391 
PRIMCOORD
36 1
Li	     10.68613      4.14385      6.39896        -0.096793     -0.013223     -0.033972
Li	      8.60985      2.16546      6.46929         0.033053     -0.008221      0.035851
Li	      6.42669      4.16092      2.12985         0.006909      0.017265     -0.014884
Li	      4.40498      8.37566      8.42762         0.046859     -0.023932     -0.024873
Li	      4.39227      0.01701      4.34907         0.068583      0.011410      0.016317
Li	      6.48199      2.08704      4.31632        -0.004242      0.020791     -0.011626
Li	      2.24832      4.08839      2.04273         0.011985      0.058122      0.034198
Li	      6.44299      8.29213      6.40510        -0.014528     -0.004000      0.009490
Li	      6.41308      6.21771      8.58829        -0.066232     -0.027755      0.063681
Ti	      8.46641      8.36099      8.60315        -0.277741      0.013440      0.153012
Mn	      8.66560      6.19944      6.39828         0.051775     -0.033239      0.027263
Mn	     10.80444      8.33070     10.67692        -0.021062      0.082223     -0.004547
Mn	      8.54063      6.18249     10.66717        -0.073689      0.003862     -0.024583
V	      0.10553      2.05459      2.05800        -0.059633      0.030387     -0.127036
V	      4.31536      6.29113      6.43830         0.079966      0.015601      0.139649
Cr	      4.35390      4.12448      4.20856        -0.000575     -0.116664      0.035882
Fe	      2.25580      2.00588      4.15832        -0.012807      0.112367     -0.013039
Cu	      6.58179      4.10795      6.35185         0.112914      0.024055      0.011603
O	      2.06233      2.09595      2.18544         0.120103      0.025757     -0.095021
O	      4.29838      4.26147      2.22767         0.023042     -0.161727     -0.071421
O	      4.26549      2.12272      4.35478         0.021288      0.030874      0.042336
O	      6.35143      4.23098      4.15774        -0.059508     -0.152565     -0.030200
O	      6.56411      2.14490      6.46501        -0.012934     -0.164472      0.039846
O	      8.57946      4.31113      6.41616         0.091143     -0.007155     -0.000712
O	      2.30270      4.05494      4.26535         0.073582      0.026644      0.015458
O	      4.39636      6.22390      4.27425         0.005698     -0.032369      0.039805
O	      4.43016      4.09135      6.39432        -0.160987     -0.018517     -0.055606
O	      6.28097      6.14928      6.26789         0.030142      0.064175     -0.016583
O	      6.38181      4.05658      8.73459        -0.011477      0.135294     -0.036020
O	      8.77321      6.31911      8.39931        -0.087116      0.095620     -0.051369
O	      2.51857      6.16640      6.32489        -0.088302      0.023348      0.068461
O	      4.36731      8.21022      6.26731         0.003310      0.005667      0.126842
O	      4.38735      6.12383      8.36862        -0.020596     -0.131746     -0.074945
O	      6.65804      8.26425      8.45571         0.359824     -0.005598      0.013389
O	      6.48289      6.07944     10.68335        -0.036610      0.075546     -0.001727
O	      8.58984      8.29956     10.47866        -0.035345      0.028735     -0.184918
