# total energy = -51.81388569 eV
 
CRYSTAL
PRIMVEC
-0.000754 2.097495 2.098844 
4.139789 -2.092796 2.092659 
2.086697 2.105353 -4.206261 
PRIMCOORD
8 1
Li	      2.15223      4.16015     -2.06648         0.001529     -0.002980      0.009395
Li	      2.00776      0.04646      2.05291        -0.003185      0.006339     -0.009193
Ti	      4.14990      0.00332     -0.01462        -0.003262     -0.009116      0.000588
Ni	      2.08021      2.10512     -0.00591        -0.007828     -0.004772      0.003971
O	      4.13844      0.10264      1.99543        -0.093386      0.090051     -0.070377
O	      1.97878      2.08144     -2.07926        -0.115206      0.090014     -0.096931
O	      2.18092      0.03150     -0.03015         0.121877     -0.095236      0.091946
O	      4.16038      2.01332      0.08716         0.099462     -0.074300      0.070601
