# total energy = -236.70824823 eV
 
CRYSTAL
PRIMVEC
0.021193 6.113511 6.319399 
6.464706 -0.010652 6.350918 
4.299275 4.086248 0.003565 
PRIMCOORD
36 1
Li	      0.24776      6.14314      6.31565        -0.018328     -0.024584      0.054002
Li	      2.04279      1.92653      0.07026        -0.024652      0.028093     -0.004123
Li	      2.18838      6.14330      8.25988         0.010015      0.026771      0.020447
Li	     10.64503      6.04572      8.51012        -0.004097     -0.004087     -0.059934
Li	      4.30257      4.17222      4.18827         0.020802     -0.039355     -0.037296
Li	      8.63593      6.12286      6.44488        -0.039662     -0.021140     -0.018226
Li	      2.27668      6.08756      4.24340        -0.004856      0.018673     -0.042725
Li	      4.19829      6.10317      6.24192         0.034128      0.042339     -0.010991
Li	      6.58388      6.12523      8.44883        -0.057415      0.012680      0.019170
Ti	      6.35258      4.08627      6.46506         0.000637     -0.073812      0.012713
Mn	      8.67667      4.15651      8.39021         0.065558     -0.072158     -0.013073
Mn	      6.39127      6.08673      4.16576         0.010887     -0.002940     -0.063834
Mn	      2.25792      4.08147      6.31772         0.016806      0.046626     -0.046019
V	      4.39572      8.17195      8.35651        -0.074605      0.061242      0.027794
V	      4.28017      8.12741      4.21798         0.037219     -0.088348      0.011966
Cr	      6.48322      8.11802     10.58935        -0.007198      0.046344      0.077521
Fe	      8.62161      4.09952      4.32115        -0.127399      0.052507      0.015982
Ni	      8.56520      8.12134      8.45805        -0.040607      0.020709      0.007426
O	      2.35244      2.16281      2.03758        -0.008267      0.076035     -0.049434
O	      4.36871      3.91271      2.11134        -0.020553      0.021342      0.016036
O	      4.42067      2.02703      4.12840         0.080924      0.002620      0.062489
O	      6.53304      4.00775      4.39968        -0.024880     -0.105757      0.036313
O	      6.44273      2.14527      6.27700        -0.029367      0.138239      0.009675
O	      8.40376      4.09950      6.37575        -0.085111     -0.019247      0.001184
O	      1.98915      4.12845      4.06571         0.034220      0.046787      0.074361
O	      4.29279      6.19686      4.17233        -0.054595      0.042536     -0.023853
O	      4.34819      4.08351      6.38630         0.051715      0.007478     -0.120780
O	      6.49048      6.10326      6.31408        -0.018232     -0.032007      0.061659
O	      6.35562      4.07429      8.39813         0.094027      0.040127     -0.089574
O	      8.62441      6.04433      8.44636        -0.058214     -0.050949      0.000870
O	      2.21801      5.95716      6.30079         0.031543     -0.031366      0.014801
O	      4.53960      8.11929      6.37973         0.016695     -0.009837     -0.068827
O	      4.26151      6.25547      8.58501         0.023162     -0.005193     -0.053731
O	      6.44185      8.12847      8.54370         0.018986     -0.018719      0.047855
O	      6.30948      6.09490     10.64542         0.151702     -0.038774      0.021002
O	      8.60044      8.19748     10.53140        -0.000985     -0.092878      0.109152
