# total energy = -240.27795064 eV
 
CRYSTAL
PRIMVEC
0.030977 6.449540 6.176194 
6.437664 -0.006046 6.214029 
4.268570 4.301393 0.019267 
PRIMCOORD
36 1
Li	      4.42597     10.63801      6.22216         0.025882      0.005694      0.017183
Li	      2.31806      8.43490      6.23124        -0.006022     -0.086678     -0.009400
Li	      2.22014      6.42653      8.09100        -0.045178      0.026625      0.028242
Li	      4.33775      8.54244      8.05300         0.027284     -0.053219     -0.002804
Li	      4.27251      4.31606      4.17346        -0.030878     -0.005585     -0.002570
Li	      6.40737      4.32981      6.22380         0.010638      0.024043      0.051017
Li	      6.37294      8.69088      6.26312         0.043580     -0.028994     -0.009890
Li	      4.16442      6.53066      6.29511         0.015937     -0.028126     -0.014422
Li	      6.32809      6.50592      8.25012         0.027085      0.039358      0.019856
Ti	      6.40783      2.30419      4.12487        -0.145000      0.265937     -0.059563
Mn	      4.28649      8.62657      4.22282         0.019194     -0.061345     -0.101088
Mn	      6.39436      6.35674      4.14162        -0.143041     -0.016404     -0.167693
Mn	      2.14365      6.40009      4.23571         0.051651     -0.028424     -0.076644
V	      6.44782      2.09223      8.19528         0.177283     -0.214332      0.167227
V	      8.47238      6.51626      6.26683        -0.042521     -0.035731     -0.097055
Cr	      4.29659      4.36867      8.24716         0.073557     -0.065669     -0.032263
Fe	      4.38512      6.46403     10.32869         0.007468      0.036279      0.129824
Fe	      2.25550      4.17866      1.98833        -0.108199      0.020898     -0.020571
O	      2.09336      2.22388      1.99413         0.013533     -0.143583      0.004494
O	      4.18241      4.42879      2.06470         0.209806      0.114322      0.001973
O	      4.44881      2.16863      4.22825         0.064169      0.116682      0.001813
O	      6.41463      4.18624      4.17261        -0.049350     -0.265177      0.014695
O	      6.27716      2.19218      6.19285         0.018277      0.025761     -0.035399
O	      8.54462      4.47919      6.27280         0.001894      0.115777     -0.072531
O	      2.08083      4.24727      3.98304         0.015547     -0.001089      0.110940
O	      4.18102      6.47683      4.06118        -0.068028     -0.034043      0.121810
O	      4.33027      4.15183      6.30183        -0.048535      0.071032      0.016778
O	      6.67791      6.44672      6.20741        -0.129381      0.000288      0.060264
O	      6.36447      4.18972      8.39596         0.001318      0.087922      0.065734
O	      8.60827      6.48607      8.29862        -0.089746      0.161199      0.060604
O	      2.18685      6.41830      6.09161        -0.009490     -0.012835     -0.051261
O	      4.31324      8.58446      6.06623         0.047627     -0.020186     -0.035858
O	      4.35512      6.33589      8.30879        -0.051988     -0.011010     -0.176857
O	      6.52508      8.60670      8.40904         0.009383      0.031275      0.161950
O	      6.57849      6.50368     10.36397         0.070728      0.046371      0.009666
O	      8.49123      8.62083     10.33741         0.035515     -0.077034     -0.078198
