# total energy = -234.12301579 eV
 
CRYSTAL
PRIMVEC
-0.024920 6.313489 6.233353 
6.304060 -0.031580 6.239765 
4.191660 4.202082 -0.009821 
PRIMCOORD
36 1
Li	     10.43830      4.13510      6.20942        -0.055268     -0.050338     -0.012468
Li	      8.35412      8.40363     12.40003        -0.023716      0.008854      0.001038
Li	      8.41985     10.39910     10.38771         0.034615     -0.020134     -0.015214
Li	      8.31774      4.20512      8.30563         0.018619      0.003654      0.005156
Li	      4.19829      4.22355      4.19030         0.002759      0.017305     -0.003887
Li	      8.37362      6.30891      6.30356         0.022119      0.011517      0.019691
Li	      6.23926      4.19347     10.32101        -0.043244     -0.014605     -0.003096
Li	      4.27291      4.17590      8.32727         0.000631     -0.029079      0.013082
Li	      6.31819      6.16973      8.32407         0.008474     -0.026406     -0.005846
Ti	      8.23439      6.17751     10.35599        -0.145974     -0.023312     -0.255789
Mn	      6.27089      8.35180     10.41224        -0.051857      0.045098     -0.041435
Mn	     10.45147      6.28053      8.30308         0.031893     -0.036846     -0.029868
Mn	      4.20879      6.30427      6.22305         0.002232      0.044372      0.062538
V	      4.17502      2.14346      2.06548        -0.023369     -0.047738      0.003327
V	      6.44018      4.23735      6.24014        -0.078762      0.000627     -0.005795
Cr	      2.10030      0.00067      2.07990         0.013571      0.042288     -0.013156
Ni	      2.11069      2.16464      4.17444         0.028298      0.038153     -0.036817
Ni	      2.19351      4.16948      6.25118         0.002128     -0.032075      0.097600
O	      2.18452      2.03591      2.10479        -0.007651     -0.046855     -0.061899
O	      4.27238      4.10752      2.02817         0.058361      0.047269     -0.016969
O	      4.29567      2.07069      3.95536         0.089084      0.000204      0.149788
O	      6.30554      4.28304      4.11566         0.005547     -0.095394      0.066522
O	      6.21561      2.24877      6.15697         0.019935     -0.025612     -0.027977
O	      8.22067      4.19321      6.19373         0.066181      0.008818     -0.012066
O	      2.10010      4.25170      4.21709        -0.021288      0.208241     -0.103915
O	      4.10889      6.37947      4.24833        -0.018984     -0.025972     -0.000992
O	      4.30544      4.34778      6.21579         0.080518      0.009427      0.024581
O	      6.38224      6.28928      6.19608        -0.023079     -0.110778      0.094439
O	      6.28147      4.17736      8.15548         0.030964     -0.015836      0.028519
O	      8.37376      6.23404      8.49160        -0.056712     -0.031239      0.191810
O	      2.03759      6.24446      6.26692         0.034210      0.068412     -0.052971
O	      4.22748      8.30485      6.41292        -0.019125     -0.026946     -0.154100
O	      4.10081      6.39525      8.22243        -0.109336      0.006206      0.014532
O	      6.20562      8.48654      8.35313        -0.049086      0.125822      0.113872
O	      6.34579      6.19678     10.42697         0.181435      0.013968     -0.014835
O	      8.20965      8.22517     10.42761        -0.004124     -0.041068     -0.017398
