# total energy = -242.12967296 eV
 
CRYSTAL
PRIMVEC
0.008823 6.256950 6.459527 
6.346166 -0.012405 6.480501 
4.212000 4.167004 0.010297 
PRIMCOORD
36 1
Li	     10.48198      4.15675      6.43982        -0.021275      0.024638     -0.022422
Li	      8.48562      8.37592     12.91454        -0.030526      0.048216     -0.014524
Li	      4.17705      2.06932      2.20785         0.025995     -0.003838      0.039751
Li	      6.31031      2.07422      4.36720        -0.006306      0.015543      0.016408
Li	      8.44763      4.12291      8.60404         0.012149      0.003002     -0.027675
Li	      6.34304      6.22085      4.32035        -0.004601     -0.000776     -0.010928
Li	      6.38288      4.21303      6.43549        -0.002286     -0.018166     -0.031048
Li	      4.29227      6.23083      6.45953         0.019471     -0.039082      0.004307
Li	      6.36050      6.22300      8.69472        -0.008484      0.001705      0.017779
Ti	      6.34646      2.04445      8.52625         0.033089      0.001477     -0.160016
Mn	      2.13500      6.28632      8.54049         0.007558     -0.036852      0.015382
Mn	      4.25138      0.07241      4.31637        -0.014920     -0.026453     -0.003220
Mn	      8.37144      6.21299      6.49975        -0.054930      0.056226     -0.002465
Mn	      4.27916      4.20261      8.65760        -0.016403      0.025463     -0.060888
V	      4.23945      4.13170      4.28000        -0.100128      0.008618      0.120183
V	      6.23882      8.32854      6.53237         0.102048     -0.076938     -0.042889
Cr	      0.06136      4.15145      4.32326         0.095821      0.014673     -0.019880
Co	      8.42721      6.28499     10.85601        -0.070943      0.042959      0.026190
O	      1.96394      1.97173      2.02552        -0.054525      0.029855      0.008944
O	      4.14009      4.26579      2.20867         0.024346      0.022280     -0.052242
O	      4.20945      2.14609      4.28433        -0.011199     -0.145256     -0.026217
O	      6.20944      4.16768      4.15214         0.107015     -0.009114      0.033260
O	      6.15039      2.11371      6.62401         0.039109     -0.055552      0.138493
O	      8.38499      4.27016      6.26811         0.040710     -0.056838      0.056344
O	      2.13452      4.15180      4.46501        -0.057396     -0.017508      0.005446
O	      4.20583      6.22099      4.22534         0.024603      0.085155     -0.000947
O	      4.09696      4.07512      6.40261         0.011807      0.021516     -0.020494
O	      6.43575      6.31558      6.56375        -0.035608      0.028192      0.018082
O	      6.43091      4.01173      8.79128         0.100284     -0.037089     -0.008375
O	      8.55856      6.24385      8.71407         0.032611     -0.130395      0.023900
O	      2.18675      6.12859      6.51454         0.004666      0.046979     -0.087047
O	      4.41850      8.26849      6.38008        -0.088114     -0.012891      0.005496
O	      4.28197      6.29243      8.84271        -0.041268      0.109164     -0.036904
O	      6.34499      8.48769      8.47003        -0.091787     -0.041620      0.078822
O	      6.39692      6.13347     10.81316         0.061427      0.075413      0.000263
O	      8.60180      8.37546     10.88117        -0.032010      0.047295      0.019133
