# total energy = -242.46253499 eV
 
CRYSTAL
PRIMVEC
0.030346 6.247734 6.234566 
6.525218 0.010086 6.255374 
4.364044 4.193023 -0.007173 
PRIMCOORD
36 1
Li	      0.10415      6.21438      6.25063        -0.059788      0.012018     -0.006082
Li	      4.43042      8.36769      8.20849        -0.068657     -0.009823      0.011210
Li	      6.58217      8.24103     10.39712        -0.012147     -0.023400      0.032028
Li	     10.88321      6.26966      8.29658         0.024441     -0.041234      0.006248
Li	      4.41819      2.10764      6.25951         0.044037      0.071603      0.016206
Li	      8.63107      6.29814     10.45746        -0.080553     -0.003784     -0.016665
Li	      6.41890      8.41211      6.33345        -0.080259     -0.026062     -0.121518
Li	      4.37344      6.33289      6.28450         0.052618     -0.087282      0.009716
Li	      6.55544      6.32021      8.32603        -0.031203      0.002127      0.007759
Ti	      2.23336      2.12273      4.23096         0.049291      0.071448      0.253437
Mn	      4.39342      8.35993      4.20052        -0.086242      0.032962      0.092939
Mn	      2.17716      6.22042      8.22196         0.051357      0.244184      0.147118
Mn	      4.37627      4.22266      4.19719         0.015069     -0.000850      0.113494
Mn	      6.54092      4.13739      6.31871        -0.079649     -0.073195     -0.094381
V	      4.45520      6.27602     10.35179        -0.125742      0.094302      0.133585
V	      8.70499      8.30513      8.31484        -0.234194     -0.105244      0.459165
Cr	      2.18028      8.29001      6.21753         0.015822      0.094784     -0.109584
Fe	      8.80646      4.35309      8.30412        -0.105262     -0.024839     -0.046329
O	      2.18869      2.03917      2.04597        -0.018635     -0.135490     -0.024739
O	      4.20009      4.20486      2.04271         0.185024     -0.013472     -0.026748
O	      4.21253      2.07550      4.15019        -0.094460     -0.022390     -0.035040
O	      6.61219      4.29501      4.00451         0.019887      0.083657     -0.088434
O	      6.64767      2.22406      6.21843         0.029229      0.041580      0.019757
O	      8.55098      4.12999      6.24520        -0.044941     -0.100232      0.019703
O	      2.23174      4.08977      4.10732        -0.059362     -0.154670      0.019998
O	      4.60860      6.33921      4.15597         0.112406      0.092851     -0.005775
O	      4.59405      4.13427      6.36445         0.179249      0.020823     -0.792862
O	      6.57311      6.15660      6.09410         0.036224     -0.007434     -0.147979
O	      6.59846      4.18057      8.45545        -0.254402      0.027725     -0.042918
O	      8.68306      6.27129      8.36383         0.012864     -0.036858     -0.009076
O	      2.16732      6.30059      6.29445        -0.034491     -0.036485      0.118021
O	      4.21927      8.32847      6.13559         0.027634      0.003356      0.010092
O	      4.40146      6.14408      8.39921         0.048820      0.108435     -0.041444
O	      6.64793      8.46934      8.27104         0.320237     -0.112591     -0.110868
O	      6.36663      6.16973     10.47141         0.223960     -0.011686     -0.075844
O	      8.69313      8.35822     10.40586         0.021816      0.025166      0.325809
