# total energy = -239.04109226 eV
 
CRYSTAL
PRIMVEC
0.048353 6.239103 6.426457 
6.315533 0.015935 6.458718 
4.239547 4.210949 -0.018897 
PRIMCOORD
36 1
Li	      6.35375      6.27301     12.76214         0.002722     -0.006260      0.042357
Li	      8.45435      8.42408     12.71291         0.027820      0.001372     -0.005768
Li	      6.50253      8.26583     10.80167         0.033438      0.048702     -0.031143
Li	      8.41187      4.19637      8.61454        -0.002615      0.015058      0.047959
Li	      4.27030      2.04744      6.40345         0.018507      0.018014      0.036110
Li	      6.34453      4.27025     10.75344        -0.016495      0.008531      0.003794
Li	      8.33924      6.26898     10.77942         0.002568     -0.055836     -0.009177
Li	      2.12710      4.18487      6.27389         0.000478      0.019553     -0.000177
Li	      8.54940      8.39667      8.71364         0.027137     -0.027287      0.110166
Ti	      4.18343      6.34726      6.30741        -0.196660      0.261589      0.031305
Mn	      4.14206      2.19465      2.08969         0.066823     -0.010633     -0.097055
Mn	      8.56433     10.40312     10.80978         0.025485     -0.021839     -0.034273
Mn	      6.36582      4.16412      6.46098        -0.060831      0.001523      0.077259
Mn	      6.47842      6.24166      8.64850         0.042068      0.136534     -0.045906
V	      6.42006     10.32939      8.51343        -0.031482     -0.075846     -0.083423
V	     10.43575      6.36383      8.54363        -0.086619     -0.048278      0.083323
Cr	      2.11469      2.12218      4.32214         0.004624      0.044964     -0.068871
Ni	      4.21759      4.13883      4.30058         0.031973     -0.028707     -0.049373
O	      1.96907      1.93900      2.29385        -0.001952      0.059185      0.008065
O	      4.36456      4.29228      2.15097        -0.126791      0.046732     -0.052693
O	      4.11926      2.00359      4.27503         0.020374     -0.090141     -0.004683
O	      6.37132      4.25051      4.14018         0.140232      0.020765      0.081065
O	      6.32076      2.17903      6.66298         0.000996      0.039738     -0.042747
O	      8.28005      4.21485      6.46753        -0.009620      0.026750      0.017209
O	      2.22186      4.06523      4.29501        -0.180652     -0.056266     -0.016969
O	      4.29007      6.26272      4.32726         0.078407      0.074364      0.075533
O	      4.39279      4.28768      6.34987         0.069595      0.017576      0.097731
O	      6.26748      6.21420      6.38538        -0.002889     -0.070562     -0.062422
O	      6.38103      4.07135      8.62609        -0.038293     -0.003671     -0.019650
O	      8.63945      6.28956      8.66542         0.065380     -0.000552      0.018466
O	      2.26380      6.25289      6.54515         0.170977      0.017779     -0.113931
O	      4.29145      8.21508      6.41783        -0.029790     -0.310040     -0.066153
O	      4.17221      6.26256      8.40921         0.024485     -0.050944      0.002699
O	      6.38923      8.52953      8.55636        -0.055178     -0.060713     -0.010301
O	      6.29450      6.30623     10.71882        -0.033889      0.006003      0.067753
O	      8.48122      8.53945     10.73329         0.019665      0.052844      0.013920
