# total energy = -244.28633591 eV
 
CRYSTAL
PRIMVEC
0.019937 6.383250 6.314021 
6.360031 0.019459 6.314617 
4.241064 4.256915 0.012159 
PRIMCOORD
36 1
Li	      6.37855      0.10824      6.28478         0.017048      0.037568     -0.052326
Li	      8.36697      2.14346      6.30603        -0.052577     -0.032594      0.001587
Li	      6.38425     10.59592      8.45803        -0.018282     -0.067312      0.061509
Li	      4.24285      2.15462      2.14522         0.028541      0.006438      0.019955
Li	      6.36469      2.13661      4.24127        -0.029575     -0.007037     -0.007059
Li	      4.32840      2.13850      6.30887         0.022251      0.036703     -0.018253
Li	      6.37817      4.16045      6.27871        -0.060343     -0.062927     -0.072887
Li	      8.46026      8.53086      8.48018        -0.011861      0.014410      0.025643
Li	      6.39668      6.41963      8.44096         0.003801      0.038929     -0.002378
Ti	      6.38195      8.50057      6.49471         0.102647     -0.076358      0.736207
Mn	      6.36208      2.14684      8.30425         0.009528     -0.037372     -0.003571
Mn	      8.48013      4.28363      8.28065         0.001643     -0.058885     -0.002861
Mn	      6.40778      6.33041      4.22511        -0.073841     -0.028110      0.008777
Mn	      6.37693      4.32919     10.51658         0.013063     -0.071538     -0.047506
Mn	      4.24437      6.39529      6.54822         0.024224     -0.031714      0.008897
V	      8.46986      4.25565      4.23252        -0.009816      0.033823     -0.111741
V	      4.29736      4.11371      4.19398         0.113152      0.191878      0.069866
Cr	      8.43666      6.44479     10.52984         0.085657      0.025403     -0.031520
O	      2.04670      2.30430      2.07567        -0.102331      0.030029     -0.049514
O	      4.12146      4.22832      2.23805        -0.090690     -0.013541     -0.160904
O	      4.29153      2.13895      4.20214         0.009459     -0.357227      0.021107
O	      6.40085      4.22969      4.21016         0.093115     -0.111638      0.015013
O	      6.34539      2.15422      6.46675         0.009596     -0.029266      0.078669
O	      8.47087      4.28745      6.08030         0.008064      0.004353     -0.053136
O	      2.15748      4.37067      4.27059        -0.156113      0.027630      0.002315
O	      4.15071      6.31349      4.09275        -0.041116      0.107512     -0.040012
O	      4.15430      4.28302      6.18993        -0.125617      0.009728      0.071279
O	      6.35779      6.56887      6.32856         0.057302      0.144640      0.024986
O	      6.48020      4.29704      8.55504        -0.004261      0.083068      0.085622
O	      8.54206      6.27649      8.49280         0.070401      0.011967      0.004500
O	      2.13339      6.27994      6.22896        -0.056192     -0.023126     -0.057668
O	      4.37772      8.49778      6.16057         0.047899      0.070258     -0.052974
O	      4.24314      6.40996      8.65390         0.005162      0.042892      0.208587
O	      6.38168      8.55885      8.30604         0.030537     -0.016699     -0.728909
O	      6.37195      6.38200     10.51945         0.038266      0.090552      0.008049
O	      8.55417      8.52420     10.51463         0.041259      0.017565      0.040653
