# total energy = -223.30052207 eV
 
CRYSTAL
PRIMVEC
-0.006561 6.399376 6.055972 
6.369937 0.023199 6.028104 
4.257714 4.257539 0.003928 
PRIMCOORD
36 1
Li	      6.34107      6.42942     12.00646         0.020347      0.006667     -0.092640
Li	      8.49296      8.57670     11.92760        -0.007238     -0.007301      0.126880
Li	      6.43404      4.20716      2.14814         0.023731     -0.027194     -0.109792
Li	      8.35962      4.12532      4.06218         0.100860      0.184777     -0.003334
Li	      6.51573      2.29526      4.05110        -0.206011     -0.116015      0.057948
Li	      6.40838      6.21266      4.05468         0.221376      0.073330     -0.007835
Li	      4.44215      4.23668      4.05646        -0.068678     -0.210875      0.022737
Li	     10.41061      8.54661     10.10665         0.022853      0.046362     -0.000278
Li	      8.49672      6.62398     10.11243        -0.056532     -0.034321     -0.004379
Ti	      4.37992      6.26275      2.08720         0.089492     -0.173511     -0.174617
V	      6.35207      6.43780      8.18200         0.116119      0.018553      0.256345
V	      2.08608      4.34364      5.88048         0.066132      0.020253     -0.316489
Cr	      2.12759      4.26496      2.04700         0.180226     -0.006827     -0.080349
Cr	      4.22634      6.42244      5.99864        -0.023396     -0.027090     -0.107703
Co	      4.29379      2.08874      5.85764        -0.072241     -0.016611      1.159454
Cu	      6.46693      4.21119      5.93617         0.101466     -0.271585     -0.009843
Cu	      8.42877      8.60129      8.15840         0.002401     -0.066897     -0.094262
Ni	      4.23675      2.15735      2.07007        -0.157432      0.143478      0.315130
O	      8.48026      8.54859     10.02074        -0.006480      0.031874      0.053673
O	      2.02294      2.22461      2.00771        -0.209278     -0.045622      0.040040
O	      4.17330      4.35026      2.05920         0.001827      0.230621     -0.057395
O	      4.22470      2.18063      4.08463         0.046801     -0.023472     -1.275530
O	      6.37433      4.26720      4.06999         0.039092      0.010439      0.044911
O	      6.27495      2.12219      6.17961         0.426406      0.257353      0.187219
O	      8.53552      4.34100      6.10368        -0.272368     -0.173090      0.000850
O	      2.10461      4.26153      4.09643        -0.073088      0.083068      0.155646
O	      4.22000      6.41504      3.96912        -0.001994      0.029913     -0.081360
O	      4.11489      4.34458      6.15928        -0.083938      0.187767     -0.119742
O	      6.32690      6.52120      6.10642        -0.328164      0.031787      0.193647
O	      6.47512      4.32497      7.95814         0.059836      0.060784      0.132975
O	      8.44887      6.31498      7.95661        -0.031040     -0.052894      0.106101
O	      2.23453      6.25589      6.08602        -0.025335      0.015471      0.014946
O	      4.35428      8.44947      6.07766        -0.017260      0.008274     -0.044433
O	      4.37280      6.47571      8.00582         0.076349     -0.019100     -0.019528
O	      6.30355      8.41300      7.96276         0.019594     -0.101224      0.023419
O	      6.40163      6.39740      9.91498         0.025568     -0.067142     -0.292409
