# total energy = -222.83342773 eV
 
CRYSTAL
PRIMVEC
0.044604 5.978202 6.571420 
6.199399 0.018965 6.596830 
4.155064 4.025239 -0.009606 
PRIMCOORD
36 1
Li	      2.08621      1.98025      0.12922         0.040762      0.039902     -0.011077
Li	      2.20307      6.00957      8.68633         0.030449     -0.060587      0.043020
Li	      3.99912      1.86629      2.26778         0.060488     -0.052715      0.081391
Li	      4.14499      6.03271     10.79683        -0.004442     -0.018954     -0.080169
Li	      2.11503      1.99245      4.34621        -0.005600     -0.012303     -0.036099
Li	      8.22328      6.04401      6.72028         0.048839     -0.046065     -0.004884
Li	      8.29925      5.99191     10.92681        -0.040191      0.030203     -0.013845
Li	      4.18476      6.00698      6.73545         0.007623      0.015201      0.045426
Li	      6.14939      6.04970      8.61994        -0.092007     -0.000041      0.060084
Ti	      4.18217      4.08653      0.17609        -0.160260      0.005232      0.031886
V	      4.12025      4.02462      4.43627         0.061781      0.053041     -0.295123
V	      4.08684      7.99278      4.47704         0.461253      0.066463     -1.300446
Cr	      6.30929      7.97106     10.91959         0.267803     -0.072594     -0.025959
Cr	      6.26351      4.07816      6.58492         0.136443     -0.281569      0.040791
Co	      8.27201      8.05056      8.80862         0.252933      0.156295      0.141868
Cu	      0.07310      2.01595      2.20133         0.059240     -0.062354      0.041904
Cu	      8.27578      4.05452      8.78072         0.011202      0.068312      0.098116
Cu	      6.24570      7.94436      6.66632        -0.064077     -0.000606     -0.117351
O	      2.01034      2.08462      2.17789         0.035831     -0.035093     -0.013066
O	      4.27244      4.02661      2.10593         0.080763     -0.034829     -0.168119
O	      4.26386      2.19752      4.24949        -0.128709      0.105735      0.075111
O	      6.16866      3.98595      4.55201        -0.006068      0.102115      0.093625
O	      6.21707      1.97028      6.37622         0.022762     -0.020606     -0.123281
O	      8.31489      4.02631      6.69782         0.019041      0.103062      0.005843
O	      2.10608      4.01316      4.24083         0.181236     -0.008489      0.006410
O	      4.18489      6.05746      4.42390        -0.061009     -0.209009      0.068649
O	      4.22462      4.03539      6.32976        -0.227572     -0.047043      0.301647
O	      6.25870      6.00431      6.58471         0.080001      0.344415      0.047806
O	      6.05876      4.03109      8.77416        -0.112789      0.017570     -0.406669
O	      8.45205      6.10116      8.74703        -0.072816     -0.168576     -0.016827
O	      1.92930      5.88909      6.59081         0.054550     -0.163851      0.061401
O	      4.18579      8.03301      6.31256         0.127190      0.150413      1.458586
O	      4.14114      5.88863      8.76709        -0.065411      0.084128     -0.018848
O	      6.39689      7.97192      8.96684        -0.160702     -0.050719     -0.101423
O	      6.22308      5.89479     11.08814         0.011701      0.053836      0.048582
O	      8.41904      7.99324     10.98902        -0.850238     -0.049922     -0.018963
