# total energy = -50.68575180 eV
 
CRYSTAL
PRIMVEC
0.000154 2.100215 2.100263 
8.037593 0.000351 0.000255 
0.000033 2.100222 -2.100269 
PRIMCOORD
8 1
Li	      0.09376      4.19790      0.00128        -0.031928      0.009685     -0.004348
Li	      3.92337      0.00520      0.00055         0.031181     -0.012263     -0.000635
Ti	      6.02724      2.10425     -0.00262        -0.002876     -0.004667      0.005905
Ni	      2.00859      2.10000      0.00183         0.001513      0.002238     -0.001648
O	      4.15828      2.10189      0.00060         0.264980      0.002708     -0.001318
O	      6.02702      0.00295     -0.00143        -0.000042     -0.001186      0.001799
O	      7.89588      2.10097      0.00011        -0.260695      0.001999      0.001061
O	      2.00846      2.09995     -2.09846        -0.002134      0.001487     -0.000816
