# total energy = -224.46227216 eV
 
CRYSTAL
PRIMVEC
0.025167 6.084575 6.315398 
6.203984 0.016459 6.324328 
4.165602 4.092517 -0.018510 
PRIMCOORD
36 1
Li	      4.19722     10.08990      6.32964         0.023259     -0.013231      0.010487
Li	      4.25719      8.21414      8.33719         0.047870      0.023312     -0.072052
Li	      6.22724      8.17523     10.46283        -0.011677      0.031616     -0.046435
Li	      2.09914      4.05802      2.09488        -0.010264     -0.037328     -0.000401
Li	      4.22345      4.04437      4.14006         0.072978     -0.057378     -0.016227
Li	      6.24261      4.08981      6.29154         0.026263     -0.027315     -0.025366
Li	      4.16976      8.16424      4.22653        -0.007420     -0.004387      0.023651
Li	      6.13978      8.16520      6.38587        -0.086667      0.040275      0.066192
Li	      6.21888      6.09273      8.43409        -0.008588     -0.070829      0.001074
Ti	      6.24957      2.06976      8.39637         0.084441      0.150646     -0.122114
V	      4.09110      2.08936      6.30781         0.049391     -0.071218     -0.034487
V	      1.99022      5.99973      4.22931        -0.029218      0.012154     -0.029546
Cr	      4.20451      6.09002     10.51061         0.010701      0.014147      0.010662
Cr	      4.19900      6.12680      6.30417         0.010908     -0.028116      0.027016
Co	      6.21002      4.05467      2.14595        -0.088975     -0.027194      0.040461
Ni	      8.34931      8.20375     12.60771        -0.150374      0.028870      0.027393
Ni	      2.07316      2.07913      4.23256         0.004087      0.135978     -0.035505
Ni	      8.28606      8.14043      8.43123         0.047971     -0.030993     -0.002355
O	      1.99615      1.94800      2.10360        -0.071789      0.022795      0.012759
O	      4.26175      4.14992      2.11988         0.032583      0.055659      0.003654
O	      4.12204      2.00487      4.35332         0.151514      0.050479     -0.042578
O	      6.36768      4.14834      4.18220        -0.026780     -0.133766     -0.052444
O	      6.13719      2.04598      6.46612        -0.050574     -0.023728      0.126271
O	      8.31265      4.21998      6.20677         0.000713      0.060753      0.035718
O	      2.09488      4.21845      4.17143         0.009993     -0.086046     -0.022259
O	      4.11808      6.09835      4.22881        -0.075536     -0.026471     -0.058171
O	      4.16129      3.94869      6.33875        -0.004366      0.139048     -0.043153
O	      6.25615      6.14451      6.28414        -0.020802     -0.031259      0.145455
O	      6.20352      3.94291      8.44629         0.070132     -0.199972      0.034334
O	      8.34926      6.08091      8.40504         0.027387     -0.113901      0.005606
O	      2.18537      6.13401      6.17471        -0.081931     -0.163581      0.081641
O	      4.13466      8.05018      6.31985         0.138081      0.008549     -0.023041
O	      4.06299      6.07223      8.40038         0.077872      0.218290      0.023587
O	      6.27380      8.31373      8.39408        -0.126278      0.077938      0.011849
O	      6.27311      6.12308     10.49148        -0.059543      0.011171     -0.036341
O	      8.29592      8.09147     10.52391         0.024639      0.065032     -0.025338
