# total energy = -225.89331664 eV
 
CRYSTAL
PRIMVEC
-0.036426 6.137144 6.538664 
6.173426 -0.006801 6.509586 
4.108517 4.064868 0.001891 
PRIMCOORD
36 1
Li	      6.09901      6.09634     12.92359         0.072214     -0.099356      0.035520
Li	      8.26583      8.18425     12.88745        -0.013223      0.052168      0.037632
Li	      2.19456      6.13367      8.70400        -0.149291      0.023239     -0.090514
Li	      4.04248      8.04586      8.65053        -0.014630      0.181709     -0.111989
Li	      4.15007      6.04523     10.74194        -0.083468      0.136763     -0.006473
Li	      6.18292      4.05686      6.50196         0.068131     -0.018271     -0.006542
Li	     10.13887      8.27968     10.89801         0.103678     -0.055822      0.051763
Li	      4.09953      4.23368      8.86241         0.020773     -0.186628      0.039544
Li	      6.02548      6.05471      8.89111         0.178730     -0.011604      0.027839
Ti	      6.16245      2.12556      8.58375        -0.021980      0.074275     -0.380242
V	      8.21019      6.00871      6.56177        -0.012391      0.044074     -0.177013
V	      6.09410      8.20007      6.77408         0.112304     -0.115544     -0.215650
Cr	      2.04854      2.02224      4.32351         0.055980      0.084029     -0.017241
Cr	      4.10904      4.06785      4.31538        -0.122875     -0.131296     -0.047987
Co	      4.09956      6.11739      6.57123        -0.062411      0.052860      1.802790
Co	      2.03870      4.07678      2.20480         0.080285     -0.000501     -0.080066
Cu	      6.17217      8.17138     10.83406        -0.263067      0.204550      0.097792
Cu	      8.09557      6.21202     10.89505         0.121760     -0.229530      0.129775
O	      6.14821      6.22575     10.89977        -0.052627      0.037805     -0.076035
O	      8.12264      8.15231     10.86931        -0.017032      0.067603     -0.020200
O	      1.97485      2.11469      2.31176        -0.125029      0.056967      0.020084
O	      4.00005      4.15422      2.30907        -0.101759      0.112032      0.105227
O	      4.08052      2.05119      4.42396        -0.024060      0.008262     -0.051067
O	      6.10010      4.08351      4.31874         0.034187     -0.050024     -0.006647
O	      6.10257      2.05258      6.71112         0.063655      0.020270      0.543136
O	      8.20646      4.10843      6.78317        -0.017087     -0.011334      0.069388
O	      2.08079      4.07741      4.25270         0.086344     -0.056746     -0.099041
O	      4.11656      6.08054      4.38770         0.141853     -0.168595     -0.522211
O	      4.00608      4.06855      6.36986        -0.020706     -0.602046     -0.248960
O	      6.14239      6.17280      6.35309         0.680152      0.025105     -0.218624
O	      6.23850      4.00881      8.74667         0.006707     -0.290341      0.016428
O	      8.28822      6.02296      8.63557         0.153273     -0.081743     -0.014327
O	      2.17933      6.03274      6.58320        -1.130858     -0.000999     -0.252787
O	      4.20137      8.04881      6.49783         0.047713      1.056134     -0.335143
O	      4.12391      6.10565      8.46442         0.185636     -0.157090     -0.123056
O	      6.15249      8.12112      8.49228         0.019118      0.029627      0.124897
