# total energy = -232.27517361 eV
 
CRYSTAL
PRIMVEC
0.000848 6.381995 6.274210 
6.154331 0.027888 6.246952 
4.126617 4.260146 -0.005089 
PRIMCOORD
36 1
Li	      2.09960      8.53486      6.26413        -0.019533      0.052688      0.026018
Li	      4.09858      6.42343      2.16797         0.021281      0.056636      0.071615
Li	      2.03153      4.33595      2.21476        -0.038169     -0.010217     -0.059201
Li	      2.06436      2.26029      4.17870        -0.053992     -0.006741     -0.012476
Li	      3.94235      4.27912      4.19847         0.022578      0.043949      0.055637
Li	      8.16488      6.42774      6.26080        -0.050314     -0.000775      0.021787
Li	      2.10293      6.21644      4.13038         0.006778     -0.026647     -0.013688
Li	      2.10275      4.25513      6.13375         0.035026      0.024061      0.044150
Li	      6.21162      6.34642      8.31043         0.017038     -0.044110      0.010933
Ti	      6.21347      0.20240      6.27886        -0.009673      0.167387     -0.055085
V	      4.05156      2.14947      2.07916        -0.075596     -0.067936     -0.064038
V	      4.20353      6.37569      6.21774        -0.000041     -0.319725     -0.256424
Cr	      4.10166      6.41345     10.42200         0.047716     -0.073229     -0.025539
Cr	      0.06027      4.22998      4.15954         0.169813     -0.168670     -0.007530
Co	      8.22374      8.29133      8.32521         0.025601     -0.317311     -0.209947
Co	      6.14568      4.27535      2.12448        -0.046884     -0.010154      0.034211
Co	      6.18823      8.53316     10.43378         0.005784      0.028458     -0.042520
Co	      6.21193      4.24303      6.30906        -0.153104      0.084787      0.039287
O	      2.24654      2.09208      2.06113         0.065634      0.056374      0.009755
O	      4.06056      4.15281      1.95038         0.122572      0.015034     -0.028237
O	      4.12153      2.04116      4.04408         0.155868      0.173818      0.208580
O	      6.24380      4.23941      4.20401        -0.060551     -0.045085     -0.085513
O	      6.20912      2.04582      6.27508         0.048244     -0.200283     -0.065413
O	      8.33551      4.30391      6.14074         0.175235     -0.045212     -0.061658
O	      1.98872      4.25716      4.16100        -0.028543     -0.051402      0.036134
O	      4.08264      6.48746      4.31389        -0.000659     -0.147349     -0.107432
O	      4.10896      4.40339      6.33674        -0.018208      0.173379     -0.040808
O	      5.98877      6.37669      6.29467         0.180371      0.071769     -0.044614
O	      6.10764      4.24529      8.37992         0.013795      0.078486      0.020471
O	      8.18021      6.51953      8.30431         0.005490      0.048928      0.023573
O	      2.05629      6.42080      6.31030        -0.157238      0.012393      0.013742
O	      4.13090      8.46670      6.26826        -0.013471      0.073147      0.114973
O	      4.14047      6.48387      8.33520        -0.053758      0.053332      0.091950
O	      6.06111      8.56519      8.34549        -0.057663      0.021105      0.076008
O	      6.14150      6.32286     10.55190        -0.069604      0.202389      0.050666
O	      8.27741      8.65727     10.31163        -0.211824      0.096728      0.230633
