# total energy = -222.00295702 eV
 
CRYSTAL
PRIMVEC
0.020152 6.285349 6.238497 
6.264234 0.010312 6.248731 
4.183675 4.204675 -0.000841 
PRIMCOORD
36 1
Li	      4.28487     10.30265      6.25869        -0.030329      0.039966     -0.015018
Li	      4.14844      8.39555      8.09430         0.040801     -0.027343      0.014653
Li	      8.33065     10.34351     10.46202         0.001955      0.004653     -0.016876
Li	      6.39283      8.39883     10.41399        -0.015277     -0.057901     -0.058857
Li	      2.07049      2.11335      4.13000         0.007961     -0.005652      0.004514
Li	      4.12587      8.39511      4.29562         0.017240      0.044357     -0.067270
Li	      6.06869      8.44626      6.19893         0.054704     -0.028114      0.019699
Li	      4.15431      6.50621      6.17121        -0.020880     -0.027670      0.003001
Li	      8.40832      8.41509      8.45607        -0.026867     -0.009024     -0.019842
Ti	      4.25775      4.14818      4.14005         0.012063      0.028330     -0.144657
V	      4.23170      2.11808      6.22954        -0.197496      0.122289     -0.012925
V	      6.05362      6.44064      8.39561         0.191425      0.127335     -0.013904
Cr	      2.10638      4.16192      2.08152        -0.009614      0.016833      0.148724
Cr	      2.12851      6.32543      4.22175        -0.097663      0.023613     -0.003577
Cu	      0.02533      2.12998      2.10929        -0.044611      0.039878      0.022377
Ni	      2.19137      8.36655      6.18619        -0.072862     -0.044152     -0.043159
Ni	      2.11112      6.27049      8.24031         0.104413     -0.129982     -0.007581
Ni	      6.28818      4.24626      6.23329        -0.029722      0.059727     -0.015744
O	      4.16104      8.40809      6.20096         0.124297     -0.011533      0.023566
O	      1.98777      2.14251      2.03296         0.097248      0.135100      0.061742
O	      4.16075      4.04234      2.19077        -0.111126     -0.149348      0.248050
O	      4.15836      2.17682      4.33405         0.034553      0.244973      0.141851
O	      6.17816      4.20790      4.09288        -0.144212      0.006996      0.064582
O	      6.16857      2.16881      6.35733         0.270835     -0.109349     -0.087042
O	      8.36230      4.34650      6.29902         0.098743      0.205024      0.077575
O	      2.21368      4.25068      4.07731         0.089977      0.046118     -0.069127
O	      4.13819      6.16720      4.13268         0.062252     -0.135649      0.091643
O	      4.22956      4.06035      6.16704        -0.066077     -0.303347     -0.138854
O	      6.42733      6.30119      6.42803        -0.136666     -0.019035      0.080887
O	      6.37412      4.45492      8.28013         0.062818      0.181652      0.015751
O	      8.41117      6.23911      8.34213        -0.017948     -0.070296     -0.068994
O	      2.10192      6.30133      6.22424        -0.037704     -0.082033     -0.146345
O	      4.30594      6.30299      8.34020        -0.159580     -0.030120      0.002684
O	      6.30324      8.22309      8.29641        -0.016966     -0.080628      0.014436
O	      6.36265      6.31024     10.18907        -0.006561      0.044708     -0.024336
O	      8.36152      8.30535     10.42024        -0.029124     -0.050376     -0.081626
