# total energy = -220.29753159 eV
 
CRYSTAL
PRIMVEC
0.020096 6.305615 6.317986 
6.058201 0.037963 6.299549 
4.060096 4.213053 0.003893 
PRIMCOORD
36 1
Li	      4.08670      4.20157      0.05164         0.042667     -0.005583      0.020153
Li	      4.10776      8.44551      8.36696        -0.089686     -0.031986      0.002899
Li	      6.06079      2.15896      4.17681        -0.003123      0.012603      0.073044
Li	      6.04497      2.13629      8.32738        -0.003845      0.019406     -0.035784
Li	      4.12654      2.24024      6.36237         0.051343      0.006955      0.044754
Li	      6.00989      4.17889      6.35233         0.057270      0.019044      0.062729
Li	      4.07667      8.42633      4.24815         0.001544     -0.001750      0.016913
Li	      4.03440      4.17932      8.30588         0.054665      0.029603      0.003003
Li	      6.11691      6.38136      8.35956        -0.011412     -0.071700     -0.050163
Ti	      6.05786      6.28008      4.30819         0.014895     -0.111315      0.295170
V	      4.19132      6.33064     10.43033         0.293367     -0.160314      0.023372
V	      8.04626      4.29837      8.33864        -0.153646     -0.033527     -0.071000
Cr	      8.03517      2.15667      6.30789        -0.087433      0.096845      0.011807
Cr	      8.09102      6.40156     10.45789        -0.029135      0.038483      0.018469
Cu	      5.96805      4.14897      2.07883         0.079031     -0.016785      0.114241
Cu	      6.05131      8.41099      6.45740        -0.176183     -0.178143      0.109026
Ni	      4.07806      4.16743      4.25405         0.037658     -0.041788     -0.103067
Ni	      4.05264      6.29234      6.39313         0.009426      0.014904      0.105803
O	      6.07556      8.53282      8.39177        -0.000682     -0.087107     -0.148270
O	      2.01742      2.12964      2.07112         0.007471      0.162762      0.147605
O	      3.95041      4.18891      2.17574        -0.242427      0.007737     -0.009095
O	      3.96914      2.02784      4.22081        -0.159717      0.000874     -0.014840
O	      6.16597      4.35428      4.26901         0.145354      0.154812      0.228826
O	      6.22508      2.15580      6.29483        -0.016999     -0.005165     -0.033069
O	      8.16073      4.12218      6.30089         0.032560     -0.152268     -0.023562
O	      2.03105      4.22697      4.11645        -0.054117     -0.023060     -0.043219
O	      4.07378      6.28767      4.21410         0.161440      0.045307     -0.020125
O	      3.95891      4.26867      6.27521         0.040096     -0.163094      0.094083
O	      6.06728      6.29156      6.16845         0.132921      0.011364     -0.339289
O	      6.26197      4.24426      8.37875         0.069426      0.013679     -0.025405
O	      8.10624      6.25356      8.48305         0.005027      0.120080     -0.044862
O	      2.05001      6.48058      6.16016        -0.057130      0.182048     -0.205855
O	      4.02893      8.33911      6.33462        -0.015474      0.050000     -0.022934
O	      4.00929      6.27702      8.59049         0.052042      0.062203     -0.093964
O	      6.03858      6.36073     10.53039        -0.127386      0.036226     -0.051509
O	      8.13256      8.48110     10.61594        -0.059806     -0.001350     -0.035885
