# total energy = -92.65258347 eV
 
CRYSTAL
PRIMVEC
1.995588 4.155524 2.068154 
4.090032 -2.108690 -2.104213 
0.005680 4.149096 -4.128914 
PRIMCOORD
16 1
Li	      2.10181      1.99408     -0.09295         0.012421     -0.017557      0.004109
Li	      2.04678     -0.01699     -2.08425        -0.000127     -0.001889     -0.001314
Li	      3.98698      2.12622     -2.00788        -0.011916      0.014990     -0.004707
Li	      4.04510      6.21192     -2.08131         0.000224      0.000007      0.000401
Mn	      1.99587      4.14635      2.03687        -0.004432     -0.000040     -0.041485
Mn	      4.09302     -0.02692     -4.13829         0.003361      0.000255      0.042011
Ni	      2.09156      4.11719     -2.06253         0.030408      0.080891      0.094577
Ni	      4.00309      4.15113     -4.16784        -0.030145     -0.079227     -0.094192
O	      4.12923      4.12264     -2.14288         0.158950     -0.004530      0.129371
O	      4.11478      1.97496     -4.28592        -0.116978     -0.079118     -0.023875
O	      4.18821      1.99501     -0.06483         0.047561      0.134105      0.006447
O	      4.06808     -0.17573     -2.17737         0.012726     -0.023915     -0.091087
O	      2.02071      4.29515      0.07596        -0.011969      0.023416      0.091438
O	      1.90076      2.12423     -2.03631        -0.047386     -0.133441     -0.006659
O	      1.97995      6.29350     -1.94449         0.115582      0.079861      0.024153
O	      1.96540      4.14586     -4.08750        -0.158281      0.006192     -0.129187
