# total energy = -51.25947282 eV
 
CRYSTAL
PRIMVEC
4.194023 -0.000025 -0.003235 
0.003558 0.000036 -4.217510 
2.098790 3.966928 -2.110566 
PRIMCOORD
8 1
Li	      2.10137      3.96423     -2.11906        -0.002408      0.004281      0.013029
Li	      2.10141      0.00172     -2.11882        -0.002089     -0.003199      0.013059
Ti	      4.24686      1.98283     -2.19175         0.022763      0.004099     -0.019606
Ni	      2.10319      1.98308     -4.22434         0.012183     -0.000646     -0.008830
O	      2.06985      1.98293     -2.10372        -0.036626     -0.001485     -0.026120
O	      4.18628      3.86756     -2.09516        -0.003360     -0.248583     -0.009057
O	      4.19432      1.98295     -4.17393         0.007617     -0.000865      0.051070
O	      4.18617      0.09847     -2.09493         0.001919      0.246399     -0.013545
