# total energy = -220.67649318 eV
 
CRYSTAL
PRIMVEC
-0.040210 6.341279 6.217781 
6.278283 -0.047768 6.225651 
4.170557 4.217418 -0.016859 
PRIMCOORD
36 1
Li	      6.23838     10.44052      8.33899        -0.086321      0.023323      0.000108
Li	      4.27515      8.38166      8.28306        -0.053922      0.005969     -0.001443
Li	      6.20404      2.15623      4.09097        -0.027113     -0.062138      0.065614
Li	      2.03912      4.23408      2.20959         0.071482     -0.011976     -0.150239
Li	      2.01741      2.20399      4.10461         0.082280     -0.027816      0.013125
Li	      0.19145      4.12692      4.09964        -0.105022      0.122439     -0.007182
Li	      2.20182      6.11650      4.06378        -0.053615      0.096259     -0.006157
Li	      2.07080      4.16477      6.11110         0.065749     -0.049796      0.009835
Li	      4.19955      6.33633      6.07210         0.026904     -0.018748      0.046335
Ti	      8.18580      6.40323      6.20592        -0.253267      0.166899     -0.134256
V	      0.13196      6.21359      6.21021         0.047809     -0.044314      0.111924
V	      8.35053      2.10082      6.22219         0.046180     -0.157801      0.070143
Cr	      8.27790      4.24276      4.15890        -0.096150     -0.053434     -0.028702
Cr	      8.27196      8.42572      8.38420        -0.143800      0.049782      0.064594
Cu	      4.17374      6.34035      2.12179         0.095024     -0.018306     -0.128463
Cu	      4.12693      4.28965      4.06386         0.152610     -0.052875     -0.045677
Cu	      6.16211      4.28665      6.23395         0.010702      0.050082     -0.055159
Cu	      6.18380      6.34593      8.36804         0.040985      0.078904      0.027986
O	      6.29324      8.28828      8.34135         0.168187      0.123438     -0.007045
O	      2.05174      2.11298      1.78070         0.093755      0.001883      0.182827
O	      4.20505      4.10045      1.75494        -0.055366     -0.027555      0.006291
O	      4.20346      2.05220      4.31830        -0.072851     -0.058043     -0.028361
O	      6.23934      4.19755      4.28689        -0.049690      0.043112     -0.205720
O	      6.29904      1.90879      6.31437        -0.163169     -0.064019     -0.089205
O	      8.45770      4.17739      6.18550         0.038278      0.056267      0.087423
O	      2.19654      4.19336      4.10936        -0.059881     -0.052000     -0.000208
O	      4.18757      6.27235      4.03182         0.085673      0.008032      0.066286
O	      4.12265      4.08116      6.39408        -0.160880     -0.165599      0.041019
O	      6.35117      6.33476      6.19898         0.268276      0.199263     -0.214411
O	      6.14925      4.38131      8.21454        -0.012909      0.010264      0.248988
O	      8.42065      6.36865      8.20752        -0.036937     -0.080468      0.280776
O	      1.92829      6.44447      6.10345         0.150870      0.004658     -0.028063
O	      4.06166      8.58064      6.14574         0.037720     -0.231629     -0.079554
O	      4.05730      6.22686      8.41882         0.114535      0.027727      0.092155
O	      6.08912      6.32321     10.58764        -0.133298      0.056738     -0.076651
O	      8.26780      8.54685     10.48163        -0.032829      0.051476     -0.128935
