# total energy = -225.52456712 eV
 
CRYSTAL
PRIMVEC
-0.036215 6.370272 6.247216 
6.192696 -0.001459 6.213379 
4.132563 4.228427 -0.005046 
PRIMCOORD
36 1
Li	      8.20169      8.43610     12.34092        -0.016442      0.019268     -0.017363
Li	      8.24462     10.49987     10.39295         0.008297      0.030037      0.000779
Li	     10.12511      6.43005      8.33932         0.052899     -0.044912      0.020587
Li	      8.19583      4.50222      8.39630        -0.015500     -0.071765      0.066632
Li	      8.23783      6.39588      6.38651         0.016423     -0.094849     -0.042898
Li	      8.18941      6.48576     10.13184        -0.084192     -0.013989     -0.017043
Li	      2.04793      4.23577      6.17071        -0.079883     -0.065251     -0.046868
Li	      8.24378      8.22748      8.35248        -0.028815      0.040790      0.117091
Li	      6.39172      6.33532      8.23697        -0.048187      0.027486      0.041768
Ti	      4.15334      2.11806      2.15881        -0.368006     -0.026930      0.469470
V	     10.17732      4.27585      6.17397         0.101728      0.306202     -0.088996
V	      4.04589      6.25389      6.13807         0.203191     -0.486642      0.083432
Cr	      6.23005      4.20985      2.11893         0.025112      0.073121      0.142695
Cr	      6.12727      4.31993     10.31440        -0.116307      0.211084     -0.207693
Fe	      6.21947      4.18892      6.35105         0.271413     -0.180452     -0.121426
Co	      6.26615      8.45574     10.36882        -0.077517      0.020178      0.015043
Cu	      2.08057      2.16849      4.18268         0.044433     -0.190577     -0.181106
Cu	      3.94199      4.23632      4.18787        -0.077889     -0.106804      0.131236
O	      8.25821      6.35890      8.25266        -0.019224      0.056988     -0.079775
O	      2.19386      1.98635      2.23442         0.334955     -0.164792     -0.523687
O	      4.22055      4.12523      1.97158         0.073433     -0.060682      0.056847
O	      4.35567      1.99732      4.02405         0.293857      0.064755     -0.157947
O	      6.23337      4.05321      4.17872        -0.129905     -0.094722      0.043761
O	      6.22828      2.06001      6.06942         0.036438      0.103064      0.026383
O	      8.39577      4.22105      6.24661        -0.299604      0.005495     -0.006788
O	      1.89505      4.14777      4.17027         0.237400      0.484909      0.075350
O	      3.94107      6.57169      4.33055        -0.141048     -0.033208      0.347287
O	      4.15149      4.38524      6.23937        -0.294403      0.576139     -0.206097
O	      6.06753      6.21198      6.12120        -0.678319      0.111011      0.467064
O	      6.19247      4.22955      8.25742        -0.031765      0.004608      0.056204
O	      2.00222      6.35289      6.38246         0.708505     -0.014218     -0.065203
O	      4.08756      8.56544      6.24628         0.032745     -0.244922     -0.083812
O	      4.08083      6.52667      8.10493        -0.066802      0.047229     -0.251369
O	      6.12254      8.55685      8.40014        -0.028961      0.008524     -0.108365
O	      6.21492      6.41134     10.50976        -0.040339     -0.258279      0.047429
O	      8.21838      8.55160     10.35002         0.202278     -0.037894     -0.002621
