# total energy = -231.59939044 eV
 
CRYSTAL
PRIMVEC
-0.033770 6.465397 6.206548 
6.166805 -0.028366 6.202035 
4.098669 4.295363 -0.006920 
PRIMCOORD
36 1
Li	      6.07868      0.01244      6.14401        -0.030660      0.019567      0.020261
Li	      8.18319      2.20650      6.12072        -0.029306      0.025435      0.038877
Li	      6.22053      8.44787     10.38181         0.010062     -0.097840     -0.017633
Li	      8.20525      4.45778      8.19462         0.005501     -0.013143      0.029311
Li	      4.10124      4.29814      4.16544        -0.024831      0.008065     -0.031801
Li	      8.19624      6.36830      6.32341        -0.000853     -0.009017     -0.053604
Li	      4.11286      6.41744      6.20898         0.024329      0.013947      0.014493
Li	      8.17619      8.41116      8.32181        -0.013776     -0.048405      0.036360
Li	      6.26384      6.40742      8.31217        -0.040291     -0.029813     -0.001320
Ti	      6.09928      4.15281      6.32605        -0.022107     -0.172576      0.048352
V	      2.01460      6.43097      8.19619         0.058550      0.142399      0.118956
V	      2.07164      2.17724      4.18227         0.210600      0.120056     -0.046183
Cr	      4.04765      8.63985      8.20426        -0.088311     -0.035599      0.084697
Cr	      2.12099      4.26566      6.21606         0.052151     -0.124731     -0.190653
Fe	     10.15503      8.65725     10.34340         0.138273     -0.135125     -0.045264
Co	     10.18955      6.41679      8.20108        -0.018287     -0.070272      0.005944
Co	      8.17800      6.42875     10.31326        -0.013631      0.019840     -0.017156
Cu	      8.21141      4.25238      4.18601        -0.015757      0.047460     -0.041983
O	      2.06362      2.02204      2.05676         0.031102     -0.019379     -0.022249
O	      4.25993      4.22764      2.03738        -0.056985     -0.005506     -0.053740
O	      3.91107      2.28893      3.98979        -0.065120      0.029520     -0.012041
O	      6.16356      4.45720      4.14460        -0.105598      0.000192      0.009370
O	      6.13428      2.27699      6.17647        -0.003562      0.251178      0.026141
O	      8.04184      4.29894      6.15924        -0.072906      0.013769      0.108342
O	      1.99384      4.25063      4.20425        -0.039058      0.054633      0.030070
O	      4.27584      6.52569      4.05489        -0.182132      0.056950      0.029503
O	      4.15880      4.31203      6.20828         0.077317      0.044569      0.032100
O	      6.16431      6.48638      6.10123        -0.013265     -0.074605      0.149872
O	      6.14005      4.32024      8.22503         0.004488      0.002559     -0.188756
O	      8.22857      6.38974      8.33523         0.009155     -0.020490      0.003907
O	      2.08512      6.27479      6.27752         0.036904      0.016440     -0.033238
O	      4.19133      8.56376      6.20241        -0.007207      0.004299      0.067250
O	      3.90783      6.60910      8.36183         0.041757      0.026778     -0.057296
O	      6.07883      8.72118      8.22505         0.036375      0.005289      0.018953
O	      6.04335      6.33749     10.35735         0.191755      0.049571     -0.037359
O	      8.25210      8.43416     10.37371        -0.084673     -0.096019     -0.022484
