# total energy = -230.78876346 eV
 
CRYSTAL
PRIMVEC
-0.008161 6.228094 6.305599 
6.312774 -0.002494 6.299905 
4.228366 4.168455 -0.021488 
PRIMCOORD
36 1
Li	      2.17268      8.31836      6.32559         0.061122      0.029348     -0.117060
Li	      4.18438      2.11535      2.05386         0.007423      0.000026      0.084343
Li	      1.99497      4.11224      2.22241         0.012342     -0.027023      0.066856
Li	      6.17776      6.35104      4.19009         0.050364     -0.078494      0.020718
Li	      4.10713      4.27887      4.16651         0.020399     -0.091761     -0.026229
Li	      6.31051      4.18858      6.41953         0.033902     -0.019425     -0.090800
Li	      0.11502      4.01864      4.13888        -0.086938      0.092136      0.047676
Li	      4.26958      6.28330      6.12396         0.014362      0.080285     -0.074917
Li	      4.31475      4.12477      8.38448        -0.030166      0.040073      0.111394
Ti	      2.10278      0.12327      2.08071         0.098166      0.203300      0.345211
V	      8.41698     10.33854     10.45513         0.035300      0.284631     -0.098808
V	      8.41007      6.31775      6.33488         0.083870     -0.176782     -0.481349
Cr	      6.30197      2.09192      4.16322         0.015203      0.088800      0.026626
Cr	      6.31005      8.28383      6.25448        -0.136142      0.025146      0.051785
Fe	      4.19481      4.08510      0.04021        -0.016514      0.161721     -0.168832
Co	      2.22869      6.17296      4.15640        -0.088988      0.162718      0.020649
Co	      6.30447      6.12053      8.37005        -0.063420      0.038621      0.076769
Ni	      0.02037      2.17172      2.17873         0.004864     -0.127532     -0.130539
O	      2.11173      1.97040      2.07793         0.033443     -0.180996     -0.037242
O	      4.36609      4.20927      2.02864         0.096131     -0.014841      0.005482
O	      4.28350      1.90813      4.27996         0.123458      0.506417      0.150811
O	      6.42458      4.10296      4.07636        -0.344536     -0.109433     -0.166900
O	      6.20697      2.02695      6.20531        -0.028708     -0.065736      0.206200
O	      8.48905      4.26891      6.17407        -0.044745     -0.005441      0.029067
O	      2.10488      4.17883      4.31757        -0.015809      0.094969     -0.023283
O	      4.17276      6.24271      4.16788        -0.038033      0.004451      0.004088
O	      4.13783      3.96406      6.25410         0.040702      0.073479      0.089933
O	      6.42279      6.27703      6.28666        -0.097138     -0.009918      0.147223
O	      6.30573      4.16237      8.37234         0.013821      0.268353      0.044184
O	      8.45525      6.20660      8.25840        -0.110944     -0.017765      0.017927
O	      2.06987      6.16197      6.40306         0.056959      0.000080      0.101523
O	      4.29728      8.40543      6.30050         0.095926     -0.178559      0.034990
O	      4.11843      6.24271      8.53153         0.130131     -0.053417     -0.030300
O	      6.31509      8.36135      8.42149         0.028459     -0.159210     -0.203510
O	      6.24346      6.31185     10.54206         0.268009     -0.062004     -0.061643
O	      8.31545      8.45831     10.53924        -0.222278     -0.776216      0.027955
