# total energy = -225.96255163 eV
 
CRYSTAL
PRIMVEC
-0.000794 6.236069 6.200756 
6.255943 0.007389 6.192709 
4.180022 4.161356 -0.004529 
PRIMCOORD
36 1
Li	      8.31785      8.29426     12.33115        -0.035305     -0.002447     -0.027060
Li	      6.24034      2.10955      4.21131        -0.011183      0.002001      0.023869
Li	      6.28120      6.20684      4.20596         0.026037      0.028221      0.018347
Li	      4.22530      4.14962      4.19780        -0.003160      0.022607      0.050323
Li	      6.23899      4.12069      6.14235        -0.025911     -0.040988      0.046533
Li	      4.16731      8.32623      4.18116         0.006960      0.020032     -0.027142
Li	      2.08942      6.28609      4.18519        -0.003088      0.022035     -0.029141
Li	      2.08342      4.15855      6.11893         0.051415      0.014626     -0.063884
Li	      8.38255      8.29182      8.25928         0.038798      0.033343     -0.026028
Ti	      2.02323      4.11585      2.19370        -0.196534      0.070111      0.418849
V	      8.30424      4.05507      4.22037         0.042295     -0.152298      0.013637
V	      4.15982      6.19541      6.02610         0.079245      0.012729      0.016841
Cr	      6.25186     10.38223      8.26485         0.058300     -0.021337     -0.006673
Cr	      4.17705      2.08607      2.06732         0.010502     -0.022479     -0.021511
Fe	      6.32562      6.31774      8.27881        -0.125476     -0.022103      0.026485
Cu	      4.16586      2.15309      6.13258        -0.145840      0.097108     -0.115790
Ni	      6.29439      6.26141     12.30860         0.107481     -0.094588     -0.105614
Ni	     10.39772      6.27504      8.29646         0.037743      0.083504      0.004710
O	      2.11618      2.09344      2.03752         0.027298     -0.027356      0.070150
O	      4.20124      4.11411      2.01354        -0.026268     -0.067664      0.148700
O	      4.15412      1.92647      4.06330        -0.011847     -0.049543      0.007333
O	      6.34619      4.16240      4.04816         0.002729      0.008754     -0.029050
O	      6.11031      2.05291      6.28736         0.183209      0.088142     -0.164577
O	      8.41136      4.08382      6.15021        -0.197262     -0.225742      0.247713
O	      2.14771      4.14287      3.97837        -0.025464      0.003132     -0.459403
O	      4.16592      6.28960      4.17183         0.040392     -0.044859     -0.063089
O	      4.18996      4.40933      6.23796         0.040114      0.036314      0.010998
O	      6.26714      6.28194      6.29908        -0.212641     -0.016160     -0.090608
O	      6.39631      4.20355      8.25670         0.172267      0.039959      0.014528
O	      8.31114      6.15794      8.25472         0.065689     -0.111876      0.042036
O	      2.14153      6.24357      6.24724         0.091251      0.041923      0.005637
O	      4.19534      8.16779      6.26876        -0.018752      0.137760      0.026845
O	      4.13737      6.30680      8.26827        -0.023922      0.056284      0.003957
O	      6.17193      8.34828      8.26698        -0.016633      0.094796      0.016028
O	      6.16885      6.24805     10.25518         0.003485     -0.014397     -0.005266
O	      8.34436      8.51029     10.26698        -0.005925      0.000457      0.021319
