# total energy = -224.64321811 eV
 
CRYSTAL
PRIMVEC
-0.014265 6.239142 6.388934 
6.309234 -0.028257 6.403099 
4.187866 4.150232 -0.000413 
PRIMCOORD
36 1
Li	      2.13194      8.26015      6.41624        -0.049201     -0.027345     -0.029222
Li	      2.13883      6.29582      8.37270         0.051049      0.022380     -0.032515
Li	      8.39224      6.21222      6.55586         0.016559     -0.017361     -0.029775
Li	      4.24536      8.17758      4.40016        -0.000089      0.001520      0.188448
Li	      2.17370      6.19971      4.28403        -0.053939      0.027471      0.083613
Li	      2.09408      4.23712      6.40539        -0.067543      0.019841      0.031042
Li	      4.03427      6.27856      6.42263        -0.018568      0.053892      0.073102
Li	      8.40464      8.18651      8.45027        -0.017512      0.038649      0.010441
Li	      6.41752      6.21188      8.46272        -0.047288      0.023805     -0.084989
Ti	      4.28649      6.11178     10.56323         0.195245     -0.372852     -0.405265
V	      6.32104      8.28993     10.51657         0.167487     -0.177698      0.311858
V	      6.26725      4.20004      6.42833        -0.170027     -0.533142      0.924822
Cr	      6.23377      6.25067      4.25893         0.002927      0.125157      0.321125
Cr	      4.14627      4.15616      4.31845        -0.151402      0.170100     -0.145252
Fe	      4.29552     10.31989      6.47189        -0.117691      0.207553      0.045997
Cu	      4.13404      8.29669      8.43548        -0.034410      0.012739     -0.136141
Cu	     10.40011      6.24214      8.59709         0.001467      0.001712      0.024213
Cu	      8.32760      4.18081      8.57496        -0.039322      0.097902      0.017479
O	      8.48215      6.12168      8.55403        -0.159607      0.032353     -0.040505
O	      1.86367      2.20122      2.27405        -0.044406     -0.022171     -0.127085
O	      4.09796      4.11235      2.16572         0.228732      0.106400      0.042446
O	      4.20131      2.07547      4.12823        -0.003104      0.099719      0.197546
O	      6.28815      4.12804      4.27348        -0.057310      0.065929      0.037291
O	      6.29299      2.17490      6.08567         0.029776     -0.128511     -0.001772
O	      8.33052      4.16565      6.14701        -0.306553      0.000852     -0.219265
O	      2.19349      4.03827      4.42921        -0.015245     -0.026844      0.066490
O	      4.26785      6.13531      4.38510         0.049313     -0.059048      0.110313
O	      4.32621      4.08725      6.30815         0.527483      0.098001      0.000934
O	      6.33383      6.01901      6.29314         0.052331      0.485002     -0.093909
O	      6.31288      4.14646      8.32906        -0.053064     -0.246310     -0.817540
O	      1.96547      6.27698      6.42600         0.111102     -0.040399      0.035213
O	      4.15012      8.38505      6.49033        -0.015761      0.004917     -0.197402
O	      4.16311      6.32641      8.68425         0.074542     -0.338540      0.320360
O	      6.38201      8.28305      8.76109         0.013184      0.006643     -0.350054
O	      6.19778      6.29643     10.74084        -0.174214     -0.055168     -0.090933
O	      8.32664      8.38995     10.60192         0.075061      0.342854     -0.041109
