# total energy = -225.54148548 eV
 
CRYSTAL
PRIMVEC
0.000356 6.304353 6.283436 
6.333048 -0.007375 6.291464 
4.219401 4.205710 -0.002419 
PRIMCOORD
36 1
Li	      8.28136      2.23581      6.28677         0.039275      0.004603     -0.021431
Li	     10.31950      6.30266      8.21628         0.064418     -0.002839     -0.062498
Li	      8.45580      4.42612      8.24788         0.018143     -0.055486     -0.037521
Li	      4.15533      4.18509      4.17288        -0.058300     -0.016172     -0.022612
Li	      8.57680      6.19854      6.46177         0.026921     -0.037056     -0.071696
Li	      6.46077      4.01863      6.39002         0.067997     -0.026223      0.019975
Li	      8.44449      6.31724     10.23564         0.023019     -0.016081      0.022258
Li	      8.43932      8.16810      8.41240         0.006924      0.068511      0.036190
Li	      6.59610      6.30087      8.36975        -0.024317     -0.027582     -0.010697
Ti	      6.20872      4.27951      2.10216        -0.222668      0.169413     -0.015933
V	      6.29601      4.20423     10.29030        -0.067411      0.073233      0.432091
V	      4.24848      6.22499      6.33383        -0.047372      0.088697      0.115480
Cr	      8.46416      4.19171      4.22902         0.082508     -0.000490     -0.038493
Cr	      2.12792      2.10748      4.21458         0.040114      0.017973     -0.055487
Fe	      6.35013      8.37910      6.32855        -0.129486      0.062025      0.025700
Ni	     10.45358      4.30440      6.30208         0.167424     -0.152649      0.001784
Ni	      4.20490      2.11668      2.10328        -0.062614      0.028068     -0.047853
Ni	      6.36365      8.37123     10.52440        -0.012836      0.013029     -0.051534
O	      8.44885      6.30422      8.36717        -0.003946      0.036702     -0.014095
O	      2.13451      1.98002      2.19041        -0.112386     -0.109734      0.070619
O	      4.32853      4.17907      2.08199         0.194010      0.100844      0.084198
O	      4.16703      2.02602      4.14290        -0.090259      0.067377      0.104764
O	      6.40741      4.23762      4.08669        -0.048937      0.087809     -0.047192
O	      6.35206      2.07084      6.19837        -0.008072      0.149405      0.141011
O	      8.46126      4.19364      6.17459        -0.222637     -0.035606      0.116684
O	      2.01316      4.11624      4.32052         0.043394     -0.015224     -0.020531
O	      4.30755      6.42076      4.33836         0.081727     -0.105859      0.073264
O	      4.14804      4.41897      6.26016         0.013680      0.056463     -0.008306
O	      6.21903      6.37043      6.24242        -0.105721     -0.082607      0.041598
O	      6.37087      4.17906      8.57693         0.045219     -0.024247     -0.406064
O	      2.18138      6.24664      6.41013         0.123648     -0.012816      0.069954
O	      4.28553      8.29885      6.26979         0.038293     -0.118837     -0.032196
O	      4.11725      6.34001      8.33585        -0.012243     -0.054013     -0.048828
O	      6.29468      8.51796      8.37259         0.095083      0.014227     -0.054526
O	      6.26475      6.21212     10.53447        -0.091206     -0.147517     -0.216611
O	      8.54852      8.48700     10.48121         0.148614      0.002662     -0.071464
