# total energy = -232.28072986 eV
 
CRYSTAL
PRIMVEC
0.008391 6.205922 6.345826 
6.248277 0.001539 6.353252 
4.168982 4.145002 -0.002371 
PRIMCOORD
36 1
Li	      6.20962      0.05375      6.34760        -0.012889      0.022950     -0.007674
Li	      8.28122      2.10577      6.31183        -0.015836      0.012785     -0.050146
Li	      4.16886      2.09612      2.14796         0.065005     -0.033973      0.030988
Li	      6.22350      2.06411      4.29195        -0.045979      0.033158      0.002122
Li	      6.26891      2.03989      8.38440        -0.029999     -0.021811     -0.017281
Li	      4.18062      4.06773      4.22938         0.008472     -0.053422      0.016487
Li	      6.27439      8.28272      6.36455         0.012463      0.006446      0.018031
Li	      8.34340      8.28220      8.49497        -0.026666      0.008125      0.013064
Li	      6.27969      6.24042      8.51934        -0.014287      0.082603      0.009370
Ti	      4.17905      6.26140      6.43043         0.011220      0.178245      0.383157
V	      6.16381     10.26478      8.41625         0.015094     -0.197464      0.008442
V	      8.29391      6.25133     10.54742        -0.136254      0.248164      0.000295
Cr	      6.26131      6.18013      4.21030         0.158001     -0.100395      0.026837
Cr	      6.23526      4.16415     10.55507        -0.040205      0.008897     -0.061553
Fe	      2.18986      4.13727      2.08222         0.001413     -0.181004     -0.107684
Fe	      6.23946      4.02772      6.47815         0.154631     -0.074583     -0.070646
Co	      4.18843      2.10652      6.37227         0.102291     -0.085765     -0.040284
Cu	      4.19397      6.20308     10.58190         0.034992      0.020263     -0.053063
O	      2.08242      1.96953      2.21406         0.003669      0.085653      0.041655
O	      4.19827      4.13551      2.09871         0.082256     -0.020903      0.021905
O	      4.06605      1.97282      4.29224        -0.097300      0.112183     -0.017605
O	      6.27755      4.19489      4.14046        -0.158810      0.015852      0.018003
O	      6.22150      2.14016      6.33240        -0.080732      0.036700      0.033810
O	      8.26384      4.13854      6.49253        -0.045677      0.165819      0.154461
O	      2.04368      4.08769      4.14710         0.003287      0.043781      0.004291
O	      4.13274      6.26443      4.30722         0.084314     -0.007352      0.034964
O	      4.24514      4.23649      6.33254        -0.093337      0.124885     -0.014455
O	      6.19334      6.16213      6.27237        -0.141664     -0.049782     -0.060705
O	      6.34544      4.14812      8.48889        -0.006494      0.011828      0.095780
O	      8.35736      6.16732      8.58098        -0.038140      0.006810      0.038160
O	      2.16881      6.20729      6.33571         0.080708      0.025718      0.006958
O	      4.21382      8.16184      6.21004        -0.021401     -0.213254     -0.028248
O	      4.08678      6.26298      8.29613        -0.039636     -0.007252     -0.458827
O	      6.25135      8.49648      8.46841         0.021942      0.115146     -0.069642
O	      6.31521      6.16657     10.58499         0.096511     -0.164413      0.040724
O	      8.42678      8.32712     10.54181         0.109039     -0.154637      0.058310
