# total energy = -51.76644282 eV
 
CRYSTAL
PRIMVEC
0.000120 2.098276 2.098632 
4.167367 -2.113960 2.114543 
4.142564 2.089565 -2.089676 
PRIMCOORD
8 1
Li	      4.13979      4.18467      0.00934         0.004074     -0.002383     -0.003454
Li	      2.07315      2.09151      0.00407        -0.004041      0.001484      0.003850
Ti	      4.15585     -0.00636      0.02100         0.002805      0.008054      0.006361
Ni	      6.22703      2.07972      0.01679        -0.000058     -0.001985     -0.002204
O	      4.17082      0.06840      2.02628         0.105776      0.075411     -0.081172
O	      4.14140      1.99958      0.09518        -0.106639     -0.083857      0.077774
O	      2.20065      2.05596      2.13795         0.118108      0.091038     -0.090900
O	      6.11269      2.11046      2.08294        -0.120025     -0.087763      0.089745
