# total energy = -232.00587236 eV
 
CRYSTAL
PRIMVEC
0.040486 6.181644 6.302595 
6.321698 0.033189 6.310049 
4.225983 4.137710 0.010525 
PRIMCOORD
36 1
Li	      4.21714      4.12311      0.06868        -0.011693     -0.002772      0.057773
Li	      2.14110      6.22750      8.35909        -0.027786      0.015681     -0.013793
Li	      4.21562      8.22016      8.35685        -0.076662     -0.035092     -0.009287
Li	      8.38393      4.20368      4.27086        -0.080041      0.012561      0.006311
Li	      8.44308      4.10050      8.35471        -0.040411     -0.021379      0.013434
Li	      2.17891      2.03943      4.22667         0.019157     -0.015955      0.024754
Li	      6.39268      4.23600      6.31457        -0.022528      0.037003      0.016999
Li	      4.31569      6.23651      6.33664         0.073397     -0.022269      0.006395
Li	      6.33867      6.20928      8.31242         0.007364     -0.070409     -0.006043
Ti	      4.29250      4.18966      4.07647         0.268409      0.001487     -0.393524
V	      0.05301      4.14577      4.23282         0.060890     -0.096297     -0.303825
V	      4.22916      4.29268      8.35271         0.302366     -0.016301     -0.103564
Cr	      8.42189      6.15001      6.34666        -0.082291      0.001896      0.076108
Cr	      2.13796      6.17348      4.22635         0.014464      0.068358     -0.068395
Fe	      2.10063      2.12327      0.16165        -0.044193     -0.049269     -0.037352
Fe	      6.32556      8.24210     10.49476        -0.049291      0.026381     -0.052013
Co	      0.05552      2.04978      2.08727        -0.034571      0.062333      0.069213
Ni	      6.30522      8.25821      6.38588        -0.014800      0.038266      0.009894
O	      2.03839      2.05838      2.06453         0.007009     -0.027673     -0.013037
O	      4.21083      4.16430      2.22817         0.016309     -0.087151      0.464068
O	      4.26660      2.16668      4.27252         0.001457      0.075877      0.018843
O	      6.17455      4.09871      4.20241        -0.295263     -0.017251     -0.031811
O	      6.31941      2.06826      6.17527        -0.015415     -0.000109      0.007271
O	      8.43147      4.13780      6.30085         0.020158      0.074515     -0.028724
O	      2.18070      4.18591      4.24773         0.054088      0.124521     -0.047453
O	      4.18551      6.17539      4.29897        -0.096202     -0.145318     -0.041040
O	      4.18779      4.07390      6.36771         0.135740     -0.022597     -0.035050
O	      6.46474      6.23589      6.33127         0.109105     -0.116079      0.008338
O	      6.24821      4.07513      8.50731        -0.095523      0.059974      0.074935
O	      8.58358      6.32278      8.42225        -0.006521      0.004688      0.012455
O	      2.12102      6.25557      6.20033        -0.034843      0.060498     -0.041417
O	      4.20211      8.25594      6.22473        -0.115552      0.033013      0.121610
O	      4.27243      6.04609      8.41806        -0.018441      0.073264     -0.010414
O	      6.48286      8.25469      8.48107        -0.010324      0.011976      0.109790
O	      6.45600      6.17171     10.44366         0.138420      0.043612      0.022969
O	      8.45612      8.24224     10.43977        -0.055980     -0.079979      0.115580
