# total energy = -228.81001862 eV
 
CRYSTAL
PRIMVEC
0.015517 6.375032 6.270239 
6.205416 0.023299 6.261544 
4.139816 4.247212 0.013272 
PRIMCOORD
36 1
Li	      6.24445      4.23322      2.19173         0.010635     -0.001145      0.047395
Li	      4.15535      6.32810     10.33196         0.000778     -0.040579      0.001079
Li	      6.25994      8.52477     10.39631         0.003416      0.018470      0.079778
Li	      4.16590      6.35582      2.23298         0.030715     -0.011723     -0.040529
Li	      1.99599      2.19698      4.10132         0.019259      0.017485     -0.022675
Li	      4.07309      4.35533      4.12578        -0.021620      0.011332     -0.001289
Li	      2.15520      6.33063      4.10490        -0.052641     -0.003567     -0.004354
Li	      2.06829      4.29651      6.23834         0.013221      0.066477      0.018475
Li	      6.19829      6.44808      8.40109         0.009449      0.031454     -0.011163
Ti	      4.07651      2.19888      6.20877        -0.027736      0.018686     -0.137222
V	      0.16360      6.34301      6.20561         0.026646     -0.122052      0.051019
V	      6.20969      4.24513      6.17265        -0.021403      0.009405     -0.213572
Cr	      2.06161      4.25395      2.12531         0.005344     -0.136897     -0.081035
Cr	      4.13897      6.41927      6.26641        -0.103843      0.043269      0.131338
Fe	      8.29542      8.50409     12.49241         0.149528      0.029683      0.067256
Fe	      4.24023      2.08932      2.24607        -0.107925      0.112959     -0.061850
Cu	      4.16474      8.40776      4.12231        -0.117942      0.121133      0.067804
Cu	      8.18706      8.53172      8.50551        -0.008163     -0.004419      0.089595
O	      2.15051      2.23770      2.03294        -0.046140      0.080852      0.130995
O	      4.09354      4.19936      1.94774        -0.071492      0.088805     -0.021980
O	      4.11860      2.16885      4.29000        -0.029886      0.023913      0.232984
O	      6.21786      4.22280      4.40161        -0.023451      0.013515      0.094957
O	      6.10851      2.10856      6.23305        -0.207032     -0.015829     -0.016477
O	      8.27862      4.37984      6.29737        -0.018145      0.137000      0.026196
O	      1.97140      4.26745      4.05455         0.038120      0.026271      0.043342
O	      4.13401      6.39500      4.30955         0.003091     -0.003526     -0.019080
O	      4.17793      4.25476      6.34397         0.012890     -0.087799     -0.232175
O	      6.20970      6.27310      6.24426         0.120004      0.021352      0.030228
O	      6.24058      4.21772      8.09436         0.058652     -0.029758     -0.131986
O	      8.25257      6.28817      8.17090         0.018767     -0.107128     -0.090799
O	      2.07633      6.37708      6.30859        -0.014939     -0.109564     -0.014710
O	      4.22437      8.50903      6.42763         0.128289      0.038801      0.082864
O	      4.15704      6.51465      8.29348         0.083542     -0.060474      0.000022
O	      6.19424      8.50645      8.46334         0.013854     -0.035541      0.004677
O	      6.18753      6.31702     10.70044         0.088981     -0.057312     -0.018741
O	      8.38058      8.52450     10.46827         0.037176     -0.083550     -0.080365
