# total energy = -222.37936863 eV
 
CRYSTAL
PRIMVEC
-0.019506 6.341426 6.229413 
6.273517 0.005839 6.204230 
4.178920 4.207234 0.007387 
PRIMCOORD
36 1
Li	      2.10239      0.17566      2.10555         0.002123     -0.033237      0.026559
Li	      3.98704      2.07335      2.07687         0.053419     -0.011032      0.045243
Li	      8.29180      4.14513      4.26945        -0.001289     -0.025889     -0.098414
Li	      6.33218      2.15669      4.26348        -0.064804     -0.000510     -0.042033
Li	      8.32547      4.09179      8.16789        -0.007286      0.032947     -0.007235
Li	      2.09811      2.12194      3.95042         0.016066      0.018978      0.061991
Li	      8.48760      6.11697      6.23460        -0.002337     -0.004804     -0.026171
Li	      6.44226      4.11915      6.20295        -0.023163      0.004998     -0.002905
Li	     10.36682      8.44748     10.32199        -0.035490      0.038464      0.007470
Ti	      4.18092      6.40684      6.16424         0.138809      0.010554     -0.025552
V	      4.26179      4.03943      3.99660         0.045370     -0.312114      0.131030
V	      6.28271      6.29844      8.42151        -0.059717      0.046473      0.076911
Cr	      2.08213      4.24090      6.22551         0.026708     -0.002848      0.028788
Cr	      8.35260      8.43398      8.33946        -0.044119      0.033104     -0.010366
Ni	     10.37193      4.26238      6.19404         0.107686     -0.085316     -0.026948
Ni	      8.29562      2.20388      6.21559         0.112180     -0.083994     -0.110394
Ni	      8.37112      6.35811     10.34811        -0.078262      0.004176     -0.007185
Ni	      6.34852      2.18129      8.24870        -0.178212      0.022977      0.066583
O	      2.05959      2.11188      2.03128         0.070384     -0.009246      0.108265
O	      4.16429      4.24585      2.22665         0.025089     -0.051039     -0.020057
O	      4.14495      2.30784      4.14776         0.027811      0.208427     -0.016375
O	      6.01397      4.24913      4.19836        -0.031771     -0.002418     -0.036495
O	      6.28957      2.04114      6.25398        -0.092963      0.093417     -0.072753
O	      8.41248      4.19436      6.16759        -0.120661      0.063255      0.041318
O	      2.29486      4.30147      4.24453        -0.016698     -0.071451      0.040912
O	      4.18445      6.27179      4.24487         0.079284      0.034664      0.180703
O	      4.08898      4.37019      6.22198        -0.013327      0.095318     -0.003555
O	      6.13410      6.41921      6.36614        -0.126577      0.067585     -0.069072
O	      6.18893      4.32475      8.28673        -0.043495      0.091515     -0.023750
O	      8.27663      6.41673      8.29065         0.001913      0.070251     -0.107019
O	      2.13411      6.28004      6.23638         0.114783     -0.069411      0.092815
O	      4.22266      8.36228      6.19662         0.081150     -0.176000      0.041255
O	      4.24362      6.26854      8.22050         0.009183     -0.038582     -0.085174
O	      6.33260      8.31166      8.23630         0.043885      0.011746     -0.044307
O	      6.25939      6.33379     10.23402        -0.015643     -0.048498     -0.030694
O	      8.33509      8.39378     10.31539        -0.000030      0.077539     -0.083389
