# total energy = -224.40430633 eV
 
CRYSTAL
PRIMVEC
-0.020633 6.255921 6.313579 
6.213996 -0.027048 6.320427 
4.136985 4.169355 -0.012573 
PRIMCOORD
36 1
Li	      8.21826      8.36045     12.48503        -0.042618      0.021836      0.004266
Li	      8.25512      4.11198      4.22584        -0.015977      0.005004     -0.005652
Li	      6.30762      8.31553     10.55183         0.026918     -0.004724     -0.031836
Li	      8.26692      4.15682      8.38415        -0.043423      0.010436     -0.040405
Li	      4.15780      4.13976      4.20677        -0.002184      0.021135      0.001784
Li	      4.16295      2.00414      6.26490        -0.004424     -0.040181     -0.048662
Li	     10.24507      8.33214     10.50217         0.021909     -0.024451      0.002381
Li	      8.22397      6.30565     10.52323        -0.001820      0.018300     -0.007615
Li	      8.27274      8.35311      8.57025         0.021187      0.012794      0.064518
Ti	     10.21835      6.33343      8.41525        -0.158897      0.173038      0.022155
Ti	      2.19318      4.11153      6.22188         0.169380     -0.008417     -0.131281
Cr	      6.21641      4.14572      2.13152         0.006776     -0.014808      0.070059
Fe	     10.18841      4.15937      6.16489         0.189860     -0.020942      0.117767
Fe	      4.10558      2.08500      2.15295         0.058296     -0.013625     -0.113727
Co	      2.08482      2.06530      4.20012         0.013749      0.024283     -0.028206
Co	      6.25130      6.18449      8.55785        -0.005222      0.038383     -0.029337
Co	      4.10531      6.28154      6.24406         0.032771      0.030764      0.012180
Ni	      6.25013      4.11578      6.25510        -0.013034      0.043413     -0.022748
O	      8.26079      8.30119     10.53788         0.011990      0.035905      0.023974
O	      2.04986      1.98267      2.06896        -0.057632     -0.035752     -0.009603
O	      4.19575      4.18623      2.01901         0.023801      0.026134     -0.011122
O	      3.96944      2.12654      4.10042        -0.113112     -0.015056      0.154775
O	      6.20114      4.29120      4.14714        -0.007441      0.085997     -0.076151
O	      6.18628      2.01258      6.45079        -0.000536     -0.051546      0.009454
O	      8.31173      4.14097      6.28890        -0.191816     -0.027764      0.002578
O	      2.06119      4.06197      4.36622         0.009833     -0.110898      0.195136
O	      4.29920      6.25503      4.10964         0.069499     -0.014524     -0.042046
O	      4.08827      4.21070      6.30659        -0.200262     -0.013504     -0.006852
O	      6.19823      6.29846      6.42574         0.051352      0.026471      0.357463
O	      6.23453      4.04364      8.34668        -0.000851     -0.135479      0.167703
O	      8.39026      6.20288      8.50418        -0.153375     -0.006332      0.043363
O	      2.02136      6.09598      6.40572        -0.016994     -0.029401     -0.043699
O	      4.21750      8.36601      6.37800         0.035092     -0.013732      0.001392
O	      4.07292      6.32481      8.35704         0.249309     -0.013155      0.058812
O	      6.12553      8.37216      8.37308        -0.015792      0.038234     -0.050921
O	      6.20644      6.25030     10.57085         0.053685     -0.017836     -0.609897
