# total energy = -228.55507848 eV
 
CRYSTAL
PRIMVEC
-0.000838 6.194825 6.339490 
6.245566 -0.017141 6.355802 
4.148842 4.126022 0.003352 
PRIMCOORD
36 1
Li	      4.11791      2.02899      2.27403         0.000211     -0.013765      0.081200
Li	      4.15509      6.23809      2.28499        -0.026931      0.036352     -0.025458
Li	      2.06248      4.08827      2.30583        -0.013827     -0.003571     -0.054077
Li	      2.01035      2.14428      4.10096        -0.015663     -0.002403     -0.064518
Li	      4.02203      4.20553      4.21131        -0.049760      0.012226      0.028174
Li	      6.17469      4.15047      6.30381        -0.029276      0.032915     -0.054537
Li	      2.20943      6.05410      4.14477        -0.007206      0.014073     -0.030871
Li	      2.15156      4.11129      6.15416         0.007871     -0.016599     -0.096526
Li	      4.17022      4.11464      8.45400         0.002746      0.023558     -0.021233
Ti	      4.21002      4.07826      0.16513        -0.010213     -0.094679      0.276828
Ti	      6.27966      6.17587      8.41180         0.005566     -0.010054     -0.172144
Cr	      0.05862      4.09294      4.18205         0.042738     -0.110992      0.042280
Fe	      2.04408      2.09765      0.10264        -0.071642      0.113445     -0.135570
Fe	      4.14276      2.20876      6.32412         0.007771     -0.146404      0.047706
Co	      6.26053     10.28892      8.49872        -0.016073     -0.020834      0.172220
Co	      4.12995      6.10211      6.26521         0.287081     -0.109492      0.000299
Co	      4.16875      6.17632     10.56849        -0.035515     -0.032822     -0.024229
Co	      6.27039      8.23571     10.58231         0.014643      0.039414     -0.002359
O	      2.06097      2.02274      1.99338         0.021221      0.046429      0.110481
O	      4.14175      4.12396      1.96750        -0.046823     -0.075313     -0.322389
O	      4.30515      1.93306      4.31316         0.049842     -0.058820     -0.049821
O	      6.40500      3.95152      4.25393         0.087312      0.023457     -0.146454
O	      6.24312      1.95319      6.22535         0.015418     -0.046029     -0.060964
O	      8.43038      4.12531      6.19436         0.043800      0.028255     -0.016224
O	      1.98310      4.12133      4.22514        -0.001738      0.004048     -0.025405
O	      4.15308      6.26457      4.25813        -0.138787      0.025166     -0.040067
O	      4.16466      4.08283      6.31057        -0.013192      0.174878     -0.015468
O	      6.24622      6.19488      6.50731        -0.046458      0.021641      0.183722
O	      6.22365      4.24431      8.56530        -0.009076      0.142412      0.004424
O	      8.19788      6.19186      8.35935        -0.134674     -0.021647      0.010120
O	      1.97620      6.24399      6.27786        -0.140826     -0.054802      0.196218
O	      4.09363      8.32197      6.25378         0.072926      0.188519     -0.012884
O	      4.20489      6.19427      8.56393         0.214260     -0.030859      0.107829
O	      6.22944      8.19869      8.66838         0.016373     -0.178307      0.070367
O	      6.15540      6.20998     10.55751        -0.031200      0.049324      0.007678
O	      8.27124      8.35841     10.67389        -0.050897      0.051280      0.031654
