# total energy = -225.82236610 eV
 
CRYSTAL
PRIMVEC
0.056652 6.338891 6.255369 
6.157746 0.058450 6.253162 
4.134538 4.253530 0.009902 
PRIMCOORD
36 1
Li	      6.28576      6.43100     12.44337         0.012869     -0.007932     -0.012520
Li	      2.04230      0.03715      2.07057        -0.036317     -0.029867     -0.004286
Li	      6.25566      8.44693     10.43216         0.040333     -0.046924      0.005014
Li	      4.15676      6.38948      2.16507        -0.008584      0.033655      0.042760
Li	      2.02837      2.17268      4.14102        -0.006846      0.043776     -0.070180
Li	      6.15429      4.28071      6.30839        -0.020348     -0.012502      0.059527
Li	      2.08546      6.29858      4.17286         0.008441     -0.031387     -0.014177
Li	      2.11114      4.27418      6.18302         0.004187      0.039580     -0.029608
Li	      8.27838      8.45976      8.35412        -0.011841     -0.043456      0.034275
Ti	      4.27992      8.54726      8.33127         0.305937      0.297311     -0.086660
Ti	      8.13786      4.23493      4.23013        -0.305159     -0.228690      0.055598
Cr	      8.22314      4.32304      8.35079        -0.014006      0.063520     -0.081060
Fe	      1.92583      1.99369      0.03057        -0.030117      0.110788     -0.020874
Fe	      4.14586      2.26382      6.26460         0.033982     -0.073108      0.054901
Fe	      4.17559      6.28614      6.17139        -0.010981     -0.066145      0.060907
Co	      6.19827      6.38645      8.35398         0.084405     -0.039931      0.078378
Ni	      4.18112      4.29790      4.17599         0.042162      0.033782     -0.057793
Ni	      0.08566      4.22842      4.17745        -0.028021     -0.041858      0.017439
O	      2.13607      2.23442      2.00666         0.081245      0.036851      0.112403
O	      4.12125      4.12085      2.11945        -0.017188     -0.279297     -0.149815
O	      4.10627      2.08153      4.14059        -0.001094     -0.098379     -0.099091
O	      6.28276      4.27807      4.11851         0.403368     -0.003469      0.044077
O	      6.13435      2.15372      6.30326        -0.040247      0.021823     -0.027561
O	      8.26062      4.33980      6.20107        -0.031147     -0.013813     -0.101885
O	      2.12201      4.24950      4.05120         0.029992     -0.008843      0.001055
O	      4.18743      6.37813      4.24449        -0.021488      0.016568     -0.097812
O	      4.14547      4.25715      6.22512        -0.005284      0.041634      0.127451
O	      6.21275      6.39401      6.40078        -0.004760      0.014611      0.050260
O	      6.24619      4.44472      8.38025         0.020135      0.080668     -0.109131
O	      8.14642      6.35341      8.26903        -0.037788     -0.038558      0.102165
O	      2.17169      6.41017      6.29280        -0.009202     -0.111567     -0.002957
O	      4.11854      8.39231      6.35774         0.032627      0.019411      0.200315
O	      4.23147      6.45225      8.41234         0.013395      0.025147     -0.000387
O	      6.13975      8.38203      8.34678        -0.295251     -0.039976      0.018530
O	      6.11111      6.36120     10.31158        -0.054264      0.101324     -0.047632
O	      8.29578      8.64153     10.52539        -0.123147      0.235257     -0.051627
