# total energy = -227.26492010 eV
 
CRYSTAL
PRIMVEC
0.036615 6.256995 6.307271 
6.242682 0.029525 6.314673 
4.166712 4.181046 0.014786 
PRIMCOORD
36 1
Li	      2.10515      2.08196      0.20130         0.004090     -0.006307      0.063373
Li	      2.03458      0.17893      2.05226        -0.003107     -0.004654     -0.051515
Li	      4.19421      6.27268     10.50806         0.019756     -0.026875     -0.021487
Li	      0.18439      2.04969      2.08799         0.021822      0.015394     -0.009134
Li	      2.11797      4.01888      2.15221        -0.048066     -0.009777      0.019991
Li	      2.06439      2.16300      4.04809        -0.029761      0.046145      0.025042
Li	      8.35799      6.29426      6.35760         0.005312      0.028746      0.039889
Li	      0.09159      4.14105      4.23166         0.009542     -0.006212      0.014257
Li	      2.06981      4.19716      6.25184        -0.010234     -0.000118     -0.042959
Ti	      6.21136      2.11128      4.24902        -0.054270     -0.018640     -0.046006
Ti	      6.45188      4.25130      6.36403         0.135480      0.291413      0.162473
Cr	      2.09227      6.24877      4.22044        -0.002578      0.013965     -0.042407
Fe	      4.09631      4.18902      4.07739         0.085054      0.074158      0.160348
Fe	      4.14570      6.37157      6.31924         0.028060     -0.053205     -0.044171
Fe	      8.33401      8.34247      8.39513         0.008018      0.033753     -0.054823
Co	      6.27793      6.25344      8.40756         0.021450     -0.027116     -0.001406
Co	      4.16160      4.15792      0.08341        -0.011416     -0.057558      0.131335
Ni	      4.04780      2.09958      2.09545         0.157377     -0.042289      0.022273
O	      2.09527      2.07129      2.14902        -0.140736     -0.013612     -0.003421
O	      4.18865      4.15329      2.05845         0.031188      0.122160     -0.147540
O	      4.27712      2.16815      4.18384         0.171513     -0.034687      0.089709
O	      6.20849      4.07143      4.36870         0.023872     -0.114138      0.045624
O	      6.25933      2.09283      6.22029         0.003037      0.044259     -0.089172
O	      8.31588      4.23248      6.32271        -0.163060     -0.025957     -0.006394
O	      2.18272      4.26062      4.20474        -0.129219      0.011638     -0.015907
O	      4.09643      6.21844      4.31495        -0.002210      0.020759     -0.057581
O	      4.26940      4.25302      6.32244         0.011430     -0.021495     -0.054925
O	      6.21578      6.16339      6.27663         0.068523     -0.225094      0.026785
O	      6.20187      4.17912      8.29188         0.052102     -0.013084     -0.208919
O	      8.29298      6.37042      8.50635        -0.014088     -0.108210     -0.012011
O	      2.04888      6.26641      6.23213        -0.044206      0.003959     -0.004941
O	      4.20959      8.39271      6.33460        -0.014253      0.082303     -0.129970
O	      4.21965      6.22265      8.32449        -0.012354     -0.064903      0.044886
O	      6.30250      8.33010      8.55696        -0.051564     -0.023327      0.142905
O	      6.29754      6.33939     10.68601        -0.024033      0.112389      0.002206
O	      8.25580      8.33337     10.42353        -0.102472     -0.003782      0.053594
