# total energy = -228.87306219 eV
 
CRYSTAL
PRIMVEC
0.014094 6.193419 6.379056 
6.315690 0.012751 6.380297 
4.216095 4.135324 0.002991 
PRIMCOORD
36 1
Li	      2.08074      2.05058      0.07136        -0.031666     -0.055600      0.058561
Li	     10.42262      6.22086      8.53846        -0.084556     -0.063792     -0.003742
Li	      2.11550      4.19676      2.21669         0.096944     -0.013578     -0.018262
Li	      4.10474      4.19993      4.25556        -0.007300     -0.030398     -0.001379
Li	      8.46986      6.23457      6.49397         0.015189      0.008420      0.074040
Li	      0.10783      4.09726      4.17491         0.040128      0.048709     -0.117904
Li	      2.16808      6.08581      4.14323         0.039076     -0.016434      0.055670
Li	      2.12341      4.13461      6.27800         0.025152      0.125660     -0.056706
Li	      8.49740      8.17526      8.50875         0.084383      0.031743     -0.010212
Ti	      8.47336     10.23354     10.73974        -0.173831     -0.287181      0.258398
Ti	      4.08950      6.22070      6.27550        -0.629433     -0.292186      0.178396
Cr	      6.29060      2.08434      4.27459         0.047423      0.108784      0.090085
Fe	      2.09153      2.23618      4.21418         0.101268     -0.268012      0.047977
Fe	      6.27759      4.06801      6.51520        -0.061011     -0.040493     -0.223089
Fe	      6.51909      6.19919      8.44813        -0.288168     -0.111547     -0.036170
Co	      2.11649      6.19663      8.47357        -0.165194      0.117993      0.039657
Co	      4.16928      2.15608      2.10255         0.243300     -1.357569      0.116927
Co	      4.25774     10.29549      6.38563         0.041826      0.041375      0.279658
O	      2.14995      2.02527      2.23920         0.849538     -0.360878     -0.289793
O	      4.25006      4.03566      2.02926         0.526805     -0.086110     -0.442162
O	      4.21792      1.98932      4.20567         0.094679      0.246162     -0.809753
O	      6.41404      4.12291      4.32733         0.064398     -0.024582      0.045117
O	      6.30452      2.05757      6.27997        -0.066853      0.233949     -0.008813
O	      8.38234      4.13571      6.22866        -0.302951      0.001780     -0.391825
O	      2.13730      4.07130      4.25907        -0.049389      0.164802      0.023498
O	      4.28618      6.21832      4.39917         0.031521      0.132632      0.021801
O	      4.29162      4.28538      6.39838         0.012991      0.088521      0.057866
O	      6.25570      6.14712      6.39120         0.052783      0.125717      0.001792
O	      6.33963      4.20609      8.42726        -0.034749     -0.023118      0.232073
O	      8.36971      6.21517      8.51099         0.138496      0.086729     -0.016496
O	      2.21172      6.18612      6.35805         0.664935      0.051064     -0.074553
O	      4.21714      8.22275      6.44294         0.015519      0.033106      0.970301
O	      4.26518      6.30823      8.52164        -0.268437      0.665844     -0.002020
O	      6.27841      8.23873      8.62820        -0.959581      0.503312     -0.110560
O	      6.22755      6.25190     10.62158        -0.026249     -0.048516      0.076001
O	      8.32813      8.38569     10.58447        -0.036986      0.263694     -0.014381
