# total energy = -221.50768569 eV
 
CRYSTAL
PRIMVEC
0.022685 6.371306 6.183731 
6.295406 0.039744 6.167144 
4.223773 4.263460 -0.000579 
PRIMCOORD
36 1
Li	      8.33148      2.25328      6.22586        -0.013690      0.019217     -0.015433
Li	      6.26339      4.33008      2.05612         0.012117      0.029464     -0.022232
Li	      6.35027      2.11232      8.08327        -0.042830      0.017487     -0.000266
Li	      8.43543      4.25326      8.11384        -0.043504      0.023378     -0.016737
Li	      4.24095      4.23639      4.15185         0.003596     -0.005669      0.055651
Li	      4.30429      2.15712      6.17054         0.012147      0.023422      0.026754
Li	      6.32479      4.19171      6.18772         0.001082     -0.007016      0.047882
Li	      2.18414      4.29553      6.17699         0.033212     -0.019934      0.024611
Li	      4.24309      4.23058      8.17114         0.043455     -0.116857     -0.004661
Ti	      4.25012      8.49124      4.16201         0.081343     -0.073143     -0.151206
Ti	      6.41738      6.39763      8.08582         0.345206     -0.103814     -0.134517
Cr	      4.14348      2.23822      2.05055        -0.099763      0.210800      0.030765
Fe	      6.29166      2.34830      4.20907         0.062923     -0.089675     -0.086490
Fe	      2.15233      6.36371      4.14393        -0.002707     -0.138543     -0.181551
Fe	      4.13223      6.20949      6.24470         0.009934      0.117905     -0.025501
Cu	      8.35986      4.31147      4.18559        -0.037240     -0.017642     -0.136708
Ni	     10.46993      4.36011      6.19434         0.110376      0.024084      0.090384
Ni	      6.37647      6.35592      4.15085        -0.015773      0.048993      0.017861
O	      8.46332      4.31100      6.08273        -0.138819     -0.013363      0.135662
O	      2.29836      2.10636      2.11226         0.059380      0.012443     -0.101879
O	      4.25360      4.07961      2.02556         0.009250     -0.098093      0.101692
O	      4.23504      2.22974      4.01287         0.088325      0.172546     -0.042207
O	      6.34321      4.25973      4.09361         0.056908      0.069592      0.012807
O	      6.31337      2.13232      6.10352         0.025283      0.085434      0.068957
O	      1.94415      4.27247      4.12003        -0.184764      0.041583      0.011489
O	      4.21267      6.50167      4.12923         0.014474      0.104043      0.004635
O	      4.19327      4.36881      6.19759         0.010769     -0.135630      0.017238
O	      6.25300      6.40622      6.23581        -0.022132      0.027004      0.284823
O	      6.27433      4.45534      8.37459         0.007219      0.127676      0.068207
O	      8.29898      6.41710      8.29136        -0.319648     -0.026659     -0.061477
O	      2.15534      6.35777      6.10648         0.001493     -0.021889      0.114950
O	      4.21822      8.49287      6.15151        -0.018424     -0.090349     -0.020242
O	      4.31843      6.54108      8.25465        -0.044095     -0.012733      0.023978
O	      6.19085      8.37140      8.34189         0.042206     -0.055672     -0.027105
O	      6.37513      6.34248     10.26869        -0.041108     -0.015065     -0.112496
O	      8.48023      8.41644     10.25443        -0.006202     -0.113323      0.002361
