# total energy = -228.82758219 eV
 
CRYSTAL
PRIMVEC
-0.026910 6.324817 6.222664 
6.247011 -0.016966 6.212599 
4.167077 4.212195 -0.013595 
PRIMCOORD
36 1
Li	      4.15663      2.10892      2.07540         0.001558      0.079720      0.025511
Li	      4.19391      0.00289      4.16598        -0.022075      0.006628      0.043808
Li	      6.20815      2.05789      4.19256        -0.049238      0.025295      0.008671
Li	      8.30010      4.25516      8.23413        -0.000023      0.057205     -0.017959
Li	      4.19695      2.09786      6.21938         0.016625      0.006771      0.027301
Li	      6.25664      4.13904      6.22948         0.037408     -0.056572     -0.043141
Li	     10.36792      8.40036     10.34056        -0.015907      0.008153     -0.051937
Li	      8.34238      6.32647     10.31320         0.024872     -0.017295     -0.040267
Li	      4.13914      6.29398      6.16945        -0.003128     -0.065901     -0.032694
Ti	      6.28969      4.23869      2.13028        -0.165328      0.123493      0.417684
Ti	      2.12070      2.17453      4.25981         0.090826      0.047385      0.124406
Cr	      6.19774      8.44832      6.20168         0.115109     -0.070880     -0.080826
Fe	      6.15021      6.33049     12.33028        -0.022636      0.102830      0.108649
Fe	      8.32691      8.46984     12.24682        -0.047399      0.005479      0.143989
Fe	      8.35672      8.37914      8.30946         0.032737     -0.128814     -0.027214
Fe	      6.25685      6.24387      8.41499         0.004260      0.002167     -0.212745
Co	      4.15820      4.19375      4.18532         0.084287      0.041397     -0.267288
Ni	      6.20984      2.11502      8.28037         0.025223     -0.077604     -0.016266
O	      2.09592      1.97095      2.10028         0.093191     -0.121527     -0.032216
O	      4.31185      4.22337      2.00737         0.068933     -0.026765      0.105221
O	      4.01541      2.13697      4.13600         0.102623      0.884088      0.135175
O	      6.28936      4.29838      4.04712        -0.115926      0.140410     -0.113739
O	      6.34151      2.02237      6.24507        -0.007149     -0.021928     -0.206988
O	      8.39321      4.10102      6.21999        -0.020243     -0.002068      0.005732
O	      2.02160      4.10484      4.19911         0.223991     -0.212353      0.041658
O	      4.30008      6.25144      4.07505        -0.176354     -0.950091      0.245301
O	      4.03119      4.21497      6.28697        -0.172706      0.004181     -0.181113
O	      6.19353      6.40530      6.18538        -0.029310      0.131220     -0.094978
O	      6.17340      4.26149      8.26042        -0.008191      0.084895     -0.022118
O	      8.25451      6.35766      8.28491        -0.103184      0.051732     -0.026729
O	      2.02827      6.29896      6.29387        -0.003690     -0.030606     -0.001791
O	      4.13318      8.51657      6.19431         0.074664     -0.061343      0.029994
O	      4.08393      6.24640      8.29183        -0.029381      0.039088     -0.034102
O	      6.24178      8.46043      8.22746        -0.004251      0.018664      0.011728
O	      6.20898      6.34671     10.32623        -0.013410      0.012335      0.087076
O	      8.30722      8.38495     10.33144         0.013223     -0.029393     -0.057793
