# total energy = -230.48190937 eV
 
CRYSTAL
PRIMVEC
0.009187 6.210898 6.348981 
6.355623 0.003280 6.354517 
4.248658 4.155755 -0.009249 
PRIMCOORD
36 1
Li	      2.25604      8.23799      6.32375         0.029414      0.009989      0.010518
Li	      2.14593      6.18629      8.40694        -0.006231      0.005314     -0.014061
Li	      2.16186      4.12380      2.19616         0.056626     -0.006803      0.046993
Li	      4.15774      4.20199      4.25765        -0.042771      0.014138      0.017059
Li	      6.33922      4.13793      6.32270        -0.038973      0.047071     -0.002299
Li	      4.31773      8.29032      4.33291         0.021302     -0.016274     -0.020402
Li	      2.16140      6.09211      4.33591         0.016346     -0.058146     -0.025358
Li	      2.07310      4.21882      6.24827        -0.011142     -0.032371      0.019714
Li	      4.10754      6.28303      6.33220        -0.074160     -0.007392      0.051889
Ti	      0.11874      2.02356      2.16947         0.365410     -0.031909      0.319964
Ti	      8.42043      6.26168      6.39722        -0.246085      0.131449      0.119964
Cr	      4.22882      4.16124      8.45297        -0.107952     -0.010766     -0.050853
Fe	      8.48157      4.13378      4.25652        -0.012041      0.011582     -0.124473
Fe	      6.39621      2.13603      4.25422        -0.052779      0.010202     -0.146467
Fe	      2.06364      2.20129      4.27158        -0.010007     -0.209234     -0.097948
Fe	      6.38124      6.12985      8.44095        -0.005914      0.039414     -0.017647
Co	      0.19498      6.14290      6.33224         0.211843     -0.130964      0.026020
Co	      4.23119      8.30724      8.37494         0.048697      0.038037     -0.175296
O	      2.02021      2.09732      2.16579        -0.355104     -0.070492     -0.086601
O	      4.23236      4.26552      2.03235         0.040931     -0.045799     -0.080935
O	      4.25400      2.07777      4.26814         0.027365      0.003959     -0.142542
O	      6.45939      4.14745      4.25685         0.006459      0.061657      0.007252
O	      6.25792      2.07376      6.35112        -0.069212      0.035486      0.032349
O	      8.58147      4.29118      6.27223         0.042847      0.121347      0.021853
O	      2.12443      4.06081      4.22199        -0.013841      0.121282      0.025118
O	      4.30601      6.19328      4.06738        -0.054188      0.012282     -0.260608
O	      4.22410      4.03448      6.43887         0.004660     -0.234221      0.024191
O	      6.49891      6.18347      6.26689         0.311994      0.016779      0.007974
O	      6.25582      4.06700      8.43599        -0.037507     -0.190900     -0.009335
O	      8.58337      6.26804      8.36681         0.056019      0.026486     -0.232050
O	      2.00876      6.23649      6.32576        -0.222788     -0.005538     -0.014802
O	      4.21694      8.33450      6.40182         0.051416      0.117408      0.612533
O	      4.24482      6.16997      8.53442        -0.087029      0.146129      0.016377
O	      6.41697      8.21667      8.56955         0.083985      0.132222      0.006178
O	      6.28256      6.29279     10.62232         0.009372     -0.012818      0.114581
O	      8.40632      8.34585     10.49089         0.063035     -0.038605      0.021147
