# total energy = -226.68923758 eV
 
CRYSTAL
PRIMVEC
-0.002264 6.246632 6.266038 
6.432777 -0.011488 6.274886 
4.288964 4.171156 -0.007852 
PRIMCOORD
36 1
Li	      6.30750      0.09783      6.12246        -0.061314     -0.012411      0.025974
Li	      8.71564     10.30124     10.51467         0.047246      0.001186     -0.048042
Li	      6.56459      8.25001     10.51484         0.025108      0.009332     -0.024238
Li	     10.54401      6.30659      8.28093        -0.047861     -0.013915      0.042635
Li	      8.52948      4.27437      8.31253         0.033285     -0.023865      0.008632
Li	      8.70928      6.13794      6.36885         0.036172      0.012523     -0.021666
Li	      6.33019      4.23212     10.37037        -0.018140     -0.065643      0.000950
Li	      2.13345      4.16497      6.22603         0.002795      0.026127      0.017523
Li	      8.66473      8.24975      8.49930         0.069987      0.034976      0.046077
Ti	      4.37753      2.18225      2.08186        -0.018036      0.325860     -0.034628
Ti	      4.25917      6.20499      6.30881        -0.017212     -0.192209      0.178097
Cr	      8.54204      8.32682     12.49833         0.005498      0.114633      0.136334
Fe	      2.11929      2.12540      4.14285        -0.077762      0.110736      0.021877
Fe	      4.20978      4.16174      4.17649         0.239572      0.056313     -0.069549
Fe	      6.52735      4.08003      6.32257        -0.213657      0.140135     -0.187899
Fe	      6.58464      6.18763      8.48073        -0.262459      0.171614     -0.232458
Cu	      6.46164     10.36877      8.40138        -0.077866     -0.103842     -0.127264
Ni	      8.53007      6.26608     10.40763         0.016306     -0.101087      0.049803
O	      2.26103      1.92911      2.10313         0.121417      0.111940     -0.138133
O	      4.20223      4.05796      2.12887        -0.161038     -0.288246     -0.001718
O	      4.16785      2.11634      4.07014        -0.023091      0.005978     -0.150814
O	      6.28926      4.25593      4.17696        -0.049240     -0.106647      0.199613
O	      6.52012      2.12842      6.28185         0.042231     -0.073262     -0.026477
O	      8.48750      4.08071      6.25371         0.052141      0.006242     -0.056383
O	      2.23195      4.11726      4.18101        -0.065207     -0.077339      0.080157
O	      4.32720      6.22746      4.26343         0.028593      0.014953      0.066322
O	      4.32204      4.27686      6.20461         0.021555      0.161326      0.042449
O	      6.29463      6.22675      6.20507        -0.016410     -0.038132      0.023759
O	      6.41590      4.22481      8.27376         0.044999      0.041791      0.048110
O	      8.49856      6.28949      8.36318         0.018096     -0.060200     -0.171503
O	      2.29286      6.28203      6.27853         0.111672     -0.086447     -0.038881
O	      4.19075      8.24891      6.37024        -0.036130     -0.046333      0.113027
O	      4.43808      6.33831      8.23695         0.312280      0.069909     -0.077951
O	      6.27713      8.38396      8.33234         0.010910     -0.286971      0.055605
O	      6.47062      6.23092     10.38321        -0.068331     -0.000666      0.153335
O	      8.59302      8.27735     10.54439        -0.026105      0.161644      0.097323
