# total energy = -50.46791853 eV
 
CRYSTAL
PRIMVEC
-0.012830 4.395658 0.000570 
4.198400 -0.012645 0.000161 
-0.000185 0.000940 -3.917169 
PRIMCOORD
8 1
Li	      0.02114      0.06806     -3.91608         0.003046      0.014410     -0.002677
Li	      2.07440      2.08945     -3.91666        -0.010281     -0.013492      0.001468
Ti	      4.07615      2.37827     -1.95757        -0.105042      0.254315      0.000783
Ni	      2.09041      0.02045     -1.95794         0.002287     -0.005857     -0.000150
O	      2.10877      0.02820     -3.91654        -0.014293      0.009029      0.001036
O	      0.02772      2.15884     -3.91661        -0.019965     -0.012937      0.000079
O	     -0.01064      4.23470     -1.95713        -0.010440     -0.283487     -0.002054
O	      2.18297      2.19450     -1.95805         0.154688      0.038019      0.001515
