# total energy = -226.72945595 eV
 
CRYSTAL
PRIMVEC
0.011703 6.407922 6.126728 
6.390823 0.019638 6.118642 
4.264515 4.270664 0.009551 
PRIMCOORD
36 1
Li	      0.11188      6.38741      6.09115         0.013969     -0.001637      0.109948
Li	      6.36211      8.51744     10.16252         0.017999     -0.016207      0.030014
Li	      2.18235      2.19951      4.11502        -0.008935      0.016922     -0.036725
Li	      4.19397      4.20212      4.11157        -0.053595     -0.055198     -0.079470
Li	      4.22782      2.21482      6.01526        -0.008086      0.003155     -0.017880
Li	      2.15246      6.40494      4.16819         0.020618      0.001357      0.007467
Li	      2.21608      4.34037      6.14300         0.061373      0.034173     -0.044449
Li	      4.21909      6.36404      6.13426         0.015680     -0.036525     -0.023609
Li	      8.39492      8.58962      8.18012         0.005223     -0.061338     -0.000088
Ti	      2.22763      4.33509      2.08208         0.395148      0.030990      0.124863
Ti	      6.21526      4.33618      5.97032        -0.330466      0.064903     -0.207599
Cr	      6.40906      6.43257      8.14226        -0.033163      0.184583     -0.087607
Fe	      2.12799      8.44316      6.13199        -0.050607      0.118669      0.091085
Fe	      4.31933      0.08549      4.07268        -0.104093     -0.046853      0.087126
Fe	     10.62086      6.47587      8.22972        -0.005951     -0.066840     -0.103259
Fe	      4.27949      8.52719      4.24372         0.091593     -0.054770     -0.078652
Cu	      6.46185     10.57061      8.19466        -0.110959      0.055281      0.127875
Cu	      4.36710      8.52925      8.16096        -0.050058      0.118238     -0.061507
O	      2.07709      2.28110      2.02451        -0.123925      0.177164      0.025075
O	      4.11443      4.45641      2.06734        -0.316575      0.018926      0.012472
O	      4.28419      2.04038      3.97378         0.026066      0.040262      0.166533
O	      6.48102      4.25085      4.06148        -0.043266     -0.009471      0.297357
O	      6.46036      2.31430      6.20900         0.007847      0.026690     -0.045028
O	      8.44489      4.23361      6.15491         0.000588      0.004994      0.057461
O	      2.03918      4.27652      3.97691         0.066869      0.069312     -0.080617
O	      4.23184      6.56428      4.01050        -0.016064     -0.032158      0.219298
O	      4.40572      4.24750      6.06193         0.282020      0.017299     -0.007864
O	      6.40958      6.23605      6.15302        -0.007366     -0.142657     -0.001672
O	      6.49341      4.32456      8.11050        -0.025604      0.052121     -0.006878
O	      8.49709      6.30661      8.13384        -0.046964     -0.046566      0.010298
O	      2.11926      6.48082      6.28774         0.010090     -0.092948     -0.212534
O	      4.18840      8.56553      6.19200         0.053392      0.014034      0.012574
O	      4.39194      6.29802      8.22956         0.183191     -0.114224     -0.154138
O	      6.38987      8.43022      8.13215         0.072522     -0.316377      0.007164
O	      6.36574      6.33279     10.17572         0.075409      0.025587     -0.059097
O	      8.63299      8.61403     10.29558        -0.063924      0.019111     -0.077938
