# total energy = -233.25432637 eV
 
CRYSTAL
PRIMVEC
0.047254 6.342049 6.226142 
6.398849 0.045233 6.228603 
4.289761 4.253586 0.006301 
PRIMCOORD
36 1
Li	      6.39422     10.53088      8.23716        -0.021405     -0.055280      0.005523
Li	      4.39103      8.54735      8.22517         0.035953      0.013618     -0.022943
Li	      4.27441      6.31634      2.09566        -0.001768     -0.043067     -0.007126
Li	      4.25657      4.28397      4.15601        -0.015097      0.020529      0.034407
Li	      4.25577      2.21719      6.26279        -0.015053      0.048927     -0.023581
Li	      2.23256      6.31413      4.19323         0.038395     -0.047573      0.051383
Li	      2.17451      4.31994      6.30065        -0.002211      0.055085      0.001635
Li	      4.25517      6.33828      6.26210        -0.010660     -0.031234      0.050227
Li	      6.48146      6.42856      8.20980        -0.020303      0.046192     -0.084990
Ti	      4.36735      6.45879     10.24644         0.055444      0.119171     -0.614292
Ti	      6.35796      6.40301      4.18891        -0.190795      0.045181      0.152072
Cr	      6.41239      4.27759      6.26849        -0.126775      0.011248      0.014999
Fe	      2.21570      8.33606      6.35096         0.011089      0.047739     -0.021415
Fe	      6.40178      8.48269     10.32351         0.012501      0.041071      0.007109
Fe	      8.67155      4.40668      8.29943        -0.080029      0.024965      0.068603
Fe	      4.31042      8.44649      4.15637         0.072560      0.069304      0.055645
Fe	      8.50035      8.38081      8.22908         0.022839      0.069666      0.017197
Co	      4.40223     10.57211      6.30716         0.115388     -0.025086      0.064835
O	      2.16643      2.21490      2.12455         0.007268      0.026800      0.105133
O	      4.19074      4.29183      2.08490         0.119069     -0.037348     -0.003041
O	      4.17797      2.02697      4.14245        -0.078970     -0.227124     -0.002391
O	      6.52842      4.36904      4.22078         0.061700      0.092745      0.025782
O	      6.51899      2.23820      6.14399        -0.026785      0.058984      0.136435
O	      8.47301      4.21165      6.24727        -0.006988      0.015710     -0.124354
O	      2.08866      4.13858      4.11311         0.038502     -0.058456      0.057089
O	      4.45550      6.44291      4.13848         0.217267     -0.075357      0.035004
O	      4.41628      4.24554      6.30041         0.058645     -0.011930     -0.140253
O	      6.44591      6.30667      6.08972         0.033244     -0.047806     -0.179141
O	      6.42008      4.29345      8.31086         0.041032     -0.014630     -0.054171
O	      8.55947      6.38893      8.34738         0.010130     -0.046974      0.012841
O	      2.17314      6.43642      6.21970        -0.085053     -0.117450     -0.036559
O	      4.22994      8.48814      6.14863        -0.015346      0.006947      0.051882
O	      4.31056      6.28216      8.42653         0.024994      0.042325      0.523970
O	      6.54774      8.48672      8.33952        -0.057630      0.001661     -0.134476
O	      6.30190      6.31947     10.44879        -0.235460     -0.043877     -0.053366
O	      8.66410      8.60926     10.36948         0.014308      0.025323      0.030328
