# total energy = -230.33244849 eV
 
CRYSTAL
PRIMVEC
0.012461 6.414783 6.180877 
6.352114 -0.001348 6.195052 
4.223522 4.274535 0.010405 
PRIMCOORD
36 1
Li	      6.33181      0.13294      6.11543         0.026990      0.037682     -0.015889
Li	      6.33714      2.07335      4.24210        -0.023069     -0.010960     -0.006196
Li	      2.19500      2.13703      4.15753         0.006968     -0.006696      0.040258
Li	      4.24959      4.15998      4.15474         0.020973     -0.109167      0.031928
Li	      4.30082      2.13327      6.13930        -0.022992      0.036226     -0.010678
Li	      6.36522      4.20945      6.16637        -0.016469      0.003731     -0.008319
Li	      8.37305      6.46406     10.28529        -0.037786      0.018678      0.054000
Li	      8.45614      8.47548      8.31582        -0.019371     -0.040710     -0.023336
Li	      6.44456      6.42248      8.29942         0.052141      0.035507     -0.019980
Ti	      6.31473      4.17755      2.16184         0.077713     -0.154843      0.061857
Ti	      4.31853      6.29191      6.11277         0.118293     -0.147770     -0.128181
Cr	     10.55660      8.58929     10.34152         0.049426      0.003255      0.026110
Fe	      4.20400      2.18932      2.12468         0.004740     -0.046528     -0.131030
Fe	      4.29752      0.06417      4.24733        -0.023744     -0.003223     -0.049500
Fe	      6.28790      2.17648      8.15459         0.029276      0.041135      0.301395
Fe	      8.46693      4.37006      8.21611        -0.028841     -0.012332      0.068568
Fe	      2.18246      4.23670      6.11263        -0.037251      0.008086      0.025105
Cu	      8.36759      2.14774      6.15069         0.055102     -0.008054     -0.021398
O	      2.02916      2.06890      1.95841        -0.012874     -0.061742      0.222454
O	      4.28089      4.35810      2.10386         0.032353      0.045372     -0.006741
O	      4.22534      2.03401      4.09722         0.013884      0.056725      0.203887
O	      6.43330      4.26772      4.00924        -0.067161     -0.022452     -0.171282
O	      6.36552      2.16112      6.24394        -0.150981     -0.011570     -0.151926
O	      8.46506      4.33989      6.25878         0.029224      0.142669     -0.006842
O	      2.03618      4.25657      4.10874        -0.032393     -0.022830     -0.109087
O	      4.22023      6.52518      4.21290         0.019949     -0.000882      0.080361
O	      4.19324      4.40041      6.13648         0.101419      0.179624      0.018894
O	      6.19761      6.50722      6.24418        -0.176252     -0.100670     -0.026725
O	      6.43415      4.19085      8.33479        -0.028682      0.065655     -0.036678
O	      8.54928      6.33986      8.27969        -0.085858      0.073091      0.003240
O	      2.23413      6.29403      6.24910         0.006571     -0.086430      0.069255
O	      4.28010      8.45203      6.19495         0.113132     -0.027007     -0.122102
O	      4.09166      6.42818      8.18520        -0.102978     -0.110153     -0.002262
O	      6.36406      8.67292      8.16344         0.067679      0.245144      0.109131
O	      6.27393      6.31587     10.30554         0.053502      0.013314     -0.016779
O	      8.54600      8.65912     10.39630        -0.012631     -0.021875     -0.251513
