# total energy = -230.48004478 eV
 
CRYSTAL
PRIMVEC
0.005629 6.233114 6.393011 
6.312286 -0.020920 6.419425 
4.191720 4.156723 0.002258 
PRIMCOORD
36 1
Li	      4.20099      4.14904      0.13833         0.019958     -0.044323      0.060543
Li	      6.21953      4.05219      2.26514         0.013624      0.021149      0.022486
Li	      4.27967      2.19185      2.20034        -0.006674      0.015314      0.036801
Li	      6.22304      2.23692      4.21747         0.015413      0.005546     -0.057721
Li	      2.18549      4.15040      2.12844         0.014790     -0.044076      0.041470
Li	      4.37446      4.04615      4.20610         0.020690      0.016879     -0.028745
Li	      6.25107      4.13993      6.27453        -0.023771      0.048996     -0.100383
Li	      6.29902      8.28755      6.49065         0.005803     -0.008635     -0.015143
Li	      4.23487      6.20491      6.43646         0.008862     -0.024342      0.031406
Ti	      8.43444      2.18798      6.51713         0.186831      0.133136      0.347122
Ti	      2.07515      6.13090      4.39569        -0.051468     -0.311535      0.336389
Cr	     10.46526      8.29453     10.69950         0.174611     -0.019144      0.059705
Fe	      4.20606      6.07775      2.09935         0.040176      0.146497      0.078751
Fe	      6.32613      6.15471      4.30006        -0.090951      0.268118     -0.084032
Fe	      4.22073      2.08250      6.29133         0.098659     -0.053266     -0.002768
Fe	      4.15734      4.19128      8.42083        -0.035030      0.050822      0.013178
Fe	      6.26088      6.26156      8.45327         0.001294     -0.036638     -0.002284
Ni	      4.15573      0.01869      4.23797         0.014133      0.046163     -0.018032
O	      2.04616      2.12439      1.98514         0.013805      0.013617     -0.363931
O	      4.18707      4.22072      2.15892         0.006984     -0.113689     -0.018716
O	      4.24642      2.04976      4.35714         0.137426      0.139659     -0.025377
O	      6.33740      4.20470      4.25140        -0.044907     -0.201594     -0.005376
O	      6.35116      2.05801      6.50149         0.052598      0.006049     -0.032221
O	      8.41987      4.09552      6.35196         0.012943     -0.217821      0.091114
O	      1.99142      4.21045      4.30598        -0.098304      0.297846     -0.011876
O	      4.06654      6.29649      4.19027        -0.198644      0.024255      0.039349
O	      4.22763      4.05720      6.48642        -0.008500      0.033289     -0.034920
O	      6.40111      6.19733      6.49407        -0.004620      0.012359      0.044144
O	      6.22513      4.14337      8.68838        -0.009685     -0.090241      0.029178
O	      8.41505      6.25336      8.59636        -0.026744     -0.037925      0.009118
O	      2.08362      6.33786      6.22562        -0.024501      0.006297     -0.323371
O	      4.03130      8.31773      6.29720        -0.245306     -0.017125     -0.023922
O	      4.29009      6.16232      8.56189        -0.044460      0.044967     -0.092600
O	      6.38123      8.22781      8.54232        -0.013566      0.044989      0.010700
O	      6.42044      6.14593     10.57446         0.105875     -0.036195      0.020516
O	      8.44035      8.23542     10.72780        -0.017343     -0.119400     -0.030552
