# total energy = -220.10876068 eV
 
CRYSTAL
PRIMVEC
-0.031986 6.252945 6.158800 
6.217516 -0.014067 6.141144 
4.154212 4.165955 -0.018427 
PRIMCOORD
36 1
Li	      0.02165      6.26841      6.18767         0.040976     -0.006964     -0.028871
Li	      2.04022      6.24974      8.19896        -0.018608     -0.042793      0.026771
Li	      8.17887      4.13904      4.08320        -0.026888      0.042560     -0.018571
Li	      6.28229      2.14622      4.10732        -0.024662      0.002112     -0.013662
Li	      4.17021      6.17569      2.02662         0.015197     -0.073328      0.034671
Li	      2.08689      4.16129      2.04447         0.036481      0.000981      0.009935
Li	      6.21237      6.19624      4.07022        -0.007937     -0.062984     -0.013118
Li	      2.07738      4.23945      6.12065         0.016573      0.055610      0.011893
Li	      4.09644      4.18866      8.19421        -0.011609      0.016173     -0.007053
Ti	      4.09328      2.15846      2.14335        -0.042548      0.306644      0.277543
Ti	      6.24022      6.29776      8.23358         0.005540      0.219131      0.136758
Mn	      6.21857      4.12095      6.11930        -0.019596      0.081576     -0.040077
Cr	      4.16040      8.29550      4.08297        -0.069276      0.049244     -0.062720
Co	      8.27472      6.23472     10.22379        -0.046518      0.111424      0.153516
Cu	      8.28304      2.06483      6.13059        -0.127840     -0.025995     -0.053654
Ni	      4.09502      6.22740      6.15295         0.058187     -0.113205      0.031592
Ni	      4.12346      4.18850      4.07087        -0.039990     -0.002431     -0.076354
Ni	      4.17606      2.03991      6.12001        -0.028393      0.049350     -0.004425
O	      2.19019      2.03773      1.97476         0.113984      0.016794      0.172154
O	      4.18731      4.04696      2.02527        -0.034513     -0.284192     -0.116393
O	      4.12498      2.09055      4.03355        -0.039036     -0.060212     -0.333778
O	      6.17315      4.17026      4.24656         0.102172     -0.042145      0.120345
O	      6.21825      2.21107      6.16678         0.130006     -0.001231      0.000931
O	      8.14159      4.14847      6.12021        -0.050501     -0.143896      0.010654
O	      2.01369      4.30145      4.11521        -0.060456     -0.064698     -0.036151
O	      4.00175      6.28281      4.09110         0.066932      0.100588     -0.148332
O	      4.26404      4.13122      6.12664         0.057227     -0.037586      0.131021
O	      6.23868      6.09636      6.20431        -0.016117     -0.053751      0.091398
O	      6.17292      4.26834      8.18377         0.016419      0.039370     -0.061921
O	      8.17416      6.26940      8.23968        -0.084562      0.002346     -0.070493
O	      2.06615      6.31622      5.99373        -0.062383     -0.041181     -0.009999
O	      4.07134      8.30171      6.11408         0.095677      0.114994      0.033889
O	      4.22086      6.32752      8.20254         0.081827      0.031199      0.107674
O	      6.11083      8.22634      8.14409        -0.013865     -0.235270      0.015204
O	      6.30300      6.15205     10.19084        -0.035450      0.031858     -0.117901
O	      8.34877      8.19390     10.29272         0.023552      0.019907     -0.152474
