# total energy = -217.46965071 eV
 
CRYSTAL
PRIMVEC
-0.036130 6.362171 6.257097 
6.220479 -0.015757 6.237130 
4.134472 4.215741 0.001767 
PRIMCOORD
36 1
Li	      6.26565      0.10493      6.28381        -0.009508     -0.025496     -0.020289
Li	      8.20558      2.13552      6.32976         0.055651      0.033698     -0.037896
Li	      1.96670      0.13987      2.11421         0.053302     -0.014401      0.002889
Li	      6.16640      2.14172      4.32306         0.056246     -0.020845     -0.019185
Li	      2.10752      4.12223      2.11080        -0.040685      0.038139      0.011753
Li	      2.12146      2.12456      4.03587         0.009326     -0.015818      0.084550
Li	      4.24896      2.03317      6.18777        -0.010638     -0.061971      0.011173
Li	      6.25658      4.09630      6.20590         0.041508      0.028618     -0.009203
Li	      1.97496      6.26519      4.20295        -0.041196      0.030931     -0.002731
Ti	      4.02434      6.41893      6.09241        -0.418787      0.086146     -0.155227
Ti	      8.23727      8.34875      8.35180        -0.028579     -0.164838      0.205562
Mn	      6.16889      6.32480      8.29831         0.035374      0.057801      0.148757
Cr	      8.20128      4.26430      4.29458        -0.009475     -0.042026      0.046468
Co	      0.02567      4.26475      4.17653        -0.067970      0.078186      0.028824
Cu	      0.14652      1.99201      1.99103        -0.038457     -0.101435      0.115901
Cu	      4.09815      4.15953      4.18849        -0.039725     -0.021705      0.105266
Ni	      4.05703      2.17737      2.11531         0.144583     -0.119856     -0.035651
Ni	      2.04586      4.23439      6.21866        -0.039467      0.065836      0.027170
O	      6.22407      2.08426      6.36498        -0.010304      0.031076     -0.095272
O	      2.07372      2.14555      2.06954        -0.082215      0.013955      0.037570
O	      4.10726      4.18258      2.25230         0.007574      0.122449     -0.092983
O	      4.16171      2.00351      4.11742         0.005695      0.017269      0.105226
O	      6.39715      4.18131      4.12579        -0.087630     -0.039381     -0.048224
O	      8.34082      4.21929      6.04788         0.030070     -0.031691      0.070016
O	      1.95584      4.25691      4.22162         0.216065     -0.030592     -0.224610
O	      4.11875      6.38515      4.19528         0.007534      0.075312      0.165209
O	      4.12743      4.35461      6.27560         0.103084      0.057810      0.147211
O	      6.08333      6.36986      6.40515        -0.076099     -0.072906     -0.063007
O	      6.09993      4.38657      8.29233        -0.058492      0.053472     -0.024210
O	      8.13701      6.46478      8.32448        -0.071157      0.204705     -0.016961
O	      2.16971      6.31113      6.27639         0.389791      0.078480     -0.015498
O	      4.12232      8.35140      6.31488        -0.111533     -0.204008     -0.136859
O	      4.21650      6.29570      8.30879        -0.010701     -0.041565     -0.048140
O	      6.25832      8.31791      8.30272         0.127228     -0.041418      0.057492
O	      6.06568      6.30027     10.23682         0.038718      0.013086     -0.075702
O	      8.31215      8.54954     10.26184        -0.069132     -0.037016     -0.249390
