# total energy = -217.24180287 eV
 
CRYSTAL
PRIMVEC
0.059157 6.233705 6.273557 
6.273866 0.039114 6.293542 
4.202699 4.189099 0.006088 
PRIMCOORD
36 1
Li	      6.22874      0.11182      6.19655        -0.009910     -0.111507      0.131567
Li	      6.25306      2.06592      4.30071        -0.097643      0.077267     -0.106409
Li	      4.22560      4.18436      4.31998         0.029283     -0.057810     -0.010782
Li	      4.27819      2.11318      6.30896        -0.003322      0.011071      0.069428
Li	      6.30450      4.14342      6.27179        -0.021341      0.027215      0.015482
Li	      8.36387      6.29971     10.53959         0.016538     -0.046564     -0.030132
Li	      2.17242      4.17437      6.22092        -0.105555     -0.015378      0.129157
Li	      4.21875      6.21302      6.25039         0.020464      0.076344      0.100476
Li	      6.29527      6.31943      8.38615         0.015490      0.036315     -0.100581
Ti	      2.14747      6.18057      8.22605        -0.090489     -0.457597     -0.159085
Ti	      6.31216      6.26893      4.37191         0.356752     -0.175405      0.637744
Mn	      8.36608      4.28214      8.35741         0.044479      0.008712     -0.052016
Cr	      4.27712      4.15365      8.27436        -0.170253     -0.321686     -0.416375
Co	      4.30035      8.32808      8.29842        -0.083201     -0.122963      0.618816
Cu	      4.22923      0.03733      4.25001        -0.184462      0.273856     -0.046879
Cu	     10.47962      6.28001      8.35564         0.004179     -0.058752     -0.218793
Cu	      4.24584      8.38335      4.26102         0.113276     -0.008061      0.097282
Ni	      8.31476      2.16179      6.23998         0.289359     -0.022243      0.174428
O	      6.24225      6.17348     10.46944        -0.141572     -0.116684      0.059348
O	      2.09760      2.06975      2.10325         0.166493     -0.022824      0.065573
O	      4.28860      4.18194      2.16741         0.112626     -0.110975      0.035004
O	      4.11788      2.06953      3.98782        -0.078701     -0.091373      0.402679
O	      6.35956      4.31741      4.10238         0.113316      0.195923      0.038094
O	      6.30941      2.11804      6.36671         0.100658     -0.026639      0.000616
O	      8.38484      4.21679      6.49640        -0.029789     -0.033455     -0.258238
O	      2.09303      4.10312      4.06800        -0.082955     -0.025790      0.060151
O	      4.35833      6.35689      4.11723        -0.069607      0.073405      0.029357
O	      4.19702      4.15446      6.43312         0.000445      0.006156     -0.028666
O	      6.33147      6.30618      6.16391        -0.011850     -0.021936     -0.781340
O	      6.19832      4.11796      8.30606         0.128158      0.368365      0.412802
O	      8.48444      6.32961      8.43891        -0.368667      0.063793      0.039461
O	      2.11970      6.27088      6.38430         0.015538      0.002894      0.070967
O	      4.19462      8.32445      6.50815        -0.101677      0.169611     -1.290359
O	      4.12862      6.18359      8.27414        -0.170678      0.080897      0.172012
O	      6.41632      8.44242      8.39931         0.162878      0.401990      0.082005
O	      8.49249      8.43782     10.40533         0.131744     -0.026173      0.057206
