# total energy = -218.06011596 eV
 
CRYSTAL
PRIMVEC
-0.010029 6.273269 6.101197 
6.521462 -0.016323 6.108598 
4.315918 4.156239 0.019548 
PRIMCOORD
36 1
Li	      8.64593      2.07541      6.13593         0.008259      0.047489      0.033671
Li	      8.59943     10.30256     10.17673         0.002399      0.005916      0.008712
Li	      6.40016      2.22281      8.09112        -0.045301     -0.015408      0.065423
Li	      8.68128      6.19486      6.21823        -0.054282      0.137361     -0.025543
Li	      6.59066      4.08123      6.20749         0.002620      0.033561     -0.040702
Li	     10.62952      8.26729     10.07355        -0.030131     -0.049300      0.104671
Li	      6.48216      8.36340      6.22110         0.080528     -0.049019      0.002131
Li	      4.28279      6.35175      6.11322         0.037211     -0.058590      0.002413
Li	      6.56382      6.13807      8.09845         0.070165      0.077238     -0.026537
Ti	      6.48711      6.29335     12.08553        -0.342012     -0.186914     -0.628461
Ti	      6.44950      6.27178      4.26455        -0.118181     -0.166442      0.614711
Mn	      4.37851      8.32429      8.14409        -0.219646     -0.319423     -0.257264
Cr	      4.40757      4.20816      4.13717         0.058622      0.012361      0.370022
Co	      4.46651      4.25125      7.99702         0.301216     -0.170612      0.439547
Cu	      2.21951      6.29271      8.05994         0.137340      0.020800      0.086594
Cu	      6.49090      8.27759     10.17296         0.121158     -0.077632      0.066451
Cu	      8.67538      4.18984      8.14944        -0.016915     -0.021173      0.009501
Cu	      8.63670      6.24880     10.17486        -0.036723      0.046748      0.031887
O	      8.66950      6.09028      8.25099         0.024162      0.257327     -0.059486
O	      8.51190      8.21890      9.93022         0.143147     -0.049658     -0.285996
O	      2.39504      2.29941      2.10388         0.058505     -0.326248     -0.073221
O	      4.58686      4.03451      2.09012        -0.059213      0.187606     -0.001584
O	      4.30753      2.17354      4.01685        -0.113623      0.063670     -0.033683
O	      6.44936      4.32722      4.07403        -0.045931      0.210332      0.102716
O	      6.54401      1.94590      6.04441         0.070124      0.012756      0.019255
O	      8.81914      4.15290      6.28067         0.171481     -0.054816     -0.213913
O	      2.36253      4.17929      3.96486         0.097348      0.004387      0.188696
O	      4.55775      6.22275      4.07975         0.230153     -0.060314     -0.057608
O	      4.27819      4.19651      6.16387         0.159434      0.125709     -0.201079
O	      6.56399      6.30447      6.04343        -0.010824     -0.011476     -0.505881
O	      6.34064      4.15157      8.13560        -0.841163      0.017392     -0.259976
O	      2.00884      6.30017      6.03331         0.064355      0.067891     -0.110036
O	      4.35769      8.42826      6.26978        -0.039705      0.105338      0.105812
O	      4.16369      6.36903      8.12513        -0.055870      0.071730     -0.025393
O	      6.28758      8.21035      8.24463         0.149575      0.038944      0.064628
O	      6.30292      6.05283     10.29327         0.041719      0.072468      0.489519
