# total energy = -97.59338972 eV
 
CRYSTAL
PRIMVEC
0.000597 2.231358 2.250778 
3.715386 -0.000708 0.004529 
-0.073332 10.236787 0.000069 
PRIMCOORD
16 1
Li	      0.00800      0.56809     -0.55132        -0.004398      0.008379      0.002362
Li	      1.86338      2.72480     -0.50652        -0.013802      0.004727     -0.013680
Li	      0.00396      4.50685     -0.03079         0.010045     -0.003880      0.004448
Li	      1.85351      4.45147     -2.21289         0.046777     -0.036447      0.046767
Ti	      3.64027      7.67769     -7.68996         0.007173     -0.029248      0.018550
Ti	      1.78593     10.35146     -8.10783        -0.000070      0.311294     -0.311940
Ni	      0.04968      6.82558     -2.37677        -0.080010     -0.074957      0.063566
Ni	      1.76261      7.18905     -4.97595        -0.012064     -0.032166      0.040651
O	      3.64685      7.93006     -5.71059         0.042296      0.264368     -0.263609
O	      1.78371      8.07264     -8.09084         0.008811     -0.091225      0.104633
O	     -0.00475      5.01146     -2.81015         0.024379     -0.079163      0.079199
O	      1.76512      7.57372     -3.12547         0.023573      0.110000     -0.101086
O	      0.00504      2.29656     -0.03190        -0.021227     -0.011916      0.013683
O	      1.86155      4.71047     -0.24553        -0.028604     -0.009784      0.000120
O	      3.64293      9.86340     -7.63063        -0.001486     -0.066989      0.076217
O	      1.78594      9.94457     -9.93806        -0.001391     -0.262993      0.240120
