# total energy = -215.85789195 eV
 
CRYSTAL
PRIMVEC
-0.064392 6.232521 6.362086 
6.138319 -0.034626 6.332933 
4.056416 4.100670 0.012731 
PRIMCOORD
36 1
Li	      4.02366      4.13576      0.16088        -0.012223      0.038133      0.048308
Li	      6.00505      4.09854      2.11677        -0.075725      0.054025      0.017769
Li	      4.03299      2.18452      2.08570        -0.043623      0.067813     -0.004924
Li	      4.05735      6.17061      2.19548         0.003889     -0.128759      0.036069
Li	      2.01123      4.08133      2.19190         0.100145      0.030077      0.037498
Li	      1.97091      2.20564      4.02274         0.016672     -0.024860     -0.107573
Li	      4.05759      4.13274      4.04446         0.023726     -0.037537     -0.193972
Li	      6.12159      4.05056      6.45466         0.064937      0.035494     -0.027397
Li	      6.12415      6.14393      8.49734         0.027845     -0.012405      0.012463
Ti	      4.01182      0.03576      4.15646        -0.203915      0.584967      0.056713
Ti	      4.13907      6.17516      6.36606         0.017032      0.399628     -0.038043
Mn	      8.14243      6.16121      6.38729        -0.012282     -0.258271     -0.050247
Cr	      1.98293      6.18880      4.26308        -0.112063     -0.302969      0.107253
Co	      6.05924      8.23040     10.53948        -0.287907      0.024403     -0.011352
Ni	      1.95425      2.08543      0.13770         0.046270      0.014529      0.119971
Ni	      6.12761      4.10499     10.52070         0.065810      0.060945      0.234993
Ni	      6.05232      8.26093      6.40406        -0.099680      0.019221      0.030940
Ni	      8.13625      8.20749      8.48696         0.210227     -0.309337     -0.043653
O	      4.04585      4.13466      2.08887        -0.106935      0.054448     -0.003129
O	      1.98409      2.06874      2.06571         0.006915      0.084518      0.132540
O	      4.17636      1.91492      4.09430         0.055423     -0.158032      0.151689
O	      6.22525      3.94137      4.16945         0.186294      0.026327     -0.082052
O	      6.02025      2.04735      6.10934        -0.044746      0.030995      0.049670
O	      8.10985      4.19668      6.17817         0.008039     -0.007399     -0.064695
O	      1.96542      4.23857      4.30782         0.163308      0.036802     -0.039668
O	      3.99426      6.19024      4.42441        -0.006000     -0.209679      0.029659
O	      4.05804      4.08255      6.38498         0.035562      0.119956      0.230446
O	      6.08723      6.19087      6.34769        -0.073043     -0.164520      0.077849
O	      5.95879      4.10739      8.54761         0.417722      0.082018     -0.181664
O	      8.14060      6.29625      8.59576        -0.078157     -0.707543     -0.142697
O	      2.11168      6.19922      6.29731         0.044676      0.001583      0.004703
O	      4.01376      8.09502      6.37164        -0.019449     -0.072808      0.100988
O	      4.07040      6.04556      8.45235         0.009493      0.676277     -0.060949
O	      6.23378      8.21320      8.59054        -0.464630      0.019802     -0.026641
O	      6.05057      6.24695     10.59632         0.113743      0.059003     -0.043343
O	      8.02631      8.26606     10.71457         0.022648     -0.126848     -0.357521
