# total energy = -221.64922206 eV
 
CRYSTAL
PRIMVEC
-0.010943 6.348577 6.292717 
6.119568 0.019736 6.260639 
4.103191 4.234499 -0.009936 
PRIMCOORD
36 1
Li	      8.11235     10.54426     10.43770        -0.055486      0.002532     -0.001919
Li	      6.10643      2.20149      4.14330        -0.019778      0.055236     -0.011376
Li	      6.09497      2.23354      8.43071        -0.020623      0.034733      0.023217
Li	      2.03057      4.18169      2.17724         0.008853      0.007580     -0.000736
Li	      2.02535      2.10587      4.14966         0.001159     -0.030749     -0.027446
Li	      4.05403      2.21484      6.25638         0.006274     -0.015346      0.043536
Li	      6.07685      4.24384      6.27758        -0.039649     -0.017462      0.015016
Li	      4.07811      8.36002      4.16083         0.024786      0.006520      0.025592
Li	      4.12998      6.20862      6.19016         0.066663     -0.017339     -0.020448
Ti	      6.00639      0.16116      6.13330        -0.234726      0.174085     -0.175646
Ti	      6.14210      6.19144      8.30516         0.150290     -0.241757     -0.134468
Mn	      6.18099      8.41213      6.27511         0.020416     -0.093298     -0.120500
Cr	      8.19264      8.51410     12.51230        -0.022743      0.014560     -0.094258
Co	      2.04649      0.09234      2.07294        -0.112653      0.042793      0.505190
Co	      4.10241      2.17808      2.08271         0.157772     -0.083123      0.031634
Cu	      4.10847      4.25455      4.15495         0.088209      0.006915      0.080368
Ni	      2.10802      6.35009      4.19924        -0.042789     -0.010795      0.027823
Ni	      8.15356      8.45239      8.47077         0.039703      0.041902      0.003178
O	      4.09055      6.16058      4.17048         0.163399     -0.026178      0.016820
O	      2.19686      2.15484      1.97546        -0.041116     -0.058195     -0.080984
O	      4.20785      4.07892      1.86148         0.056763      0.034278     -0.251189
O	      4.08777      2.35739      3.98282        -0.018115     -0.019433     -0.101409
O	      5.99843      4.27177      3.94956         0.048201      0.010528     -0.365197
O	      6.17546      2.03896      6.28690         0.027074     -0.203707     -0.003306
O	      8.25688      4.18959      6.19623         0.180082      0.057003     -0.028997
O	      2.18248      4.25867      4.34335        -0.027849     -0.064367      0.065477
O	      3.95744      4.22210      6.47312        -0.024491     -0.000808      0.038019
O	      6.10967      6.27591      6.44284         0.018572      0.004930      0.302928
O	      6.08776      4.33765      8.43075         0.125112      0.222983     -0.008695
O	      8.03415      6.37022      8.43391        -0.177983     -0.094629     -0.091321
O	      2.02578      6.47426      6.39856        -0.034442      0.035758     -0.003077
O	      4.14469      8.57556      6.34627        -0.033293     -0.012285     -0.060360
O	      4.07511      6.51620      8.47091         0.010431      0.090187     -0.030127
O	      6.05872      8.41870      8.27424        -0.154001      0.014855      0.022999
O	      6.15416      6.36452     10.51759        -0.141933     -0.024824      0.215489
O	      8.17859      8.41851     10.50932         0.007912      0.156919      0.194174
