# total energy = -221.01536834 eV
 
CRYSTAL
PRIMVEC
0.012209 6.291051 6.215381 
6.141247 0.037542 6.190528 
4.118192 4.202195 0.000358 
PRIMCOORD
36 1
Li	      0.06456      0.00989      0.07369        -0.067963      0.045400      0.041961
Li	      2.11931      6.37302      8.19658         0.056590      0.072123      0.005570
Li	      4.11406      8.37035      8.26726         0.060189     -0.011266     -0.027644
Li	     10.23437      6.30388      8.24432        -0.028875      0.000336     -0.004564
Li	      2.06346      2.11530      4.13396        -0.033029      0.004323      0.053108
Li	      8.18867      6.36657      6.24836         0.051035     -0.055687     -0.006441
Li	      8.17062      6.33561     10.34467         0.013139      0.002266      0.021324
Li	      4.07670      6.28125      6.29686        -0.020198      0.019625      0.037974
Li	      4.07383      4.19581      8.18401        -0.016294      0.021367     -0.020157
Ti	      4.15924      4.18222      4.09667         0.134573      0.010548     -0.196222
Ti	      4.11721      8.26778      4.16142        -0.014820     -0.303037      0.112361
Mn	      2.02558      2.05362      0.06304         0.092692      0.271001     -0.156848
Cr	      6.17822      6.29337      8.19123        -0.209586     -0.254840     -0.157228
Co	      4.08690      0.10946      4.09443        -0.162334      0.170362     -0.004567
Co	      6.12184      4.21313      6.22476         0.082575     -0.012099      0.062408
Cu	      6.21058      8.37992     10.28100        -0.050783     -0.008500     -0.054090
Cu	      2.08422      4.32546      6.29161        -0.079619     -0.041071     -0.077820
Ni	      2.08872      4.19623      2.04748         0.016228     -0.019326     -0.098188
O	      2.07833      2.16914      1.90869         0.013794     -0.188907      0.086648
O	      4.09321      4.25334      2.23394         0.265524     -0.037745      0.271349
O	      4.21320      2.22177      4.15044         0.011903      0.111338     -0.012899
O	      6.08111      4.36098      4.29551        -0.127531     -0.171491     -0.048114
O	      6.24738      2.25407      6.11423        -0.130896      0.030377      0.128371
O	      8.06824      4.12332      6.16228         0.023862     -0.026612     -0.034694
O	      2.06472      4.16383      4.27883        -0.016305     -0.010893     -0.185557
O	      4.11505      6.37705      4.09594        -0.015122      0.161307      0.059958
O	      4.13860      4.23768      6.11324         0.121420     -0.048819     -0.113613
O	      6.14057      6.13156      6.32293        -0.034458      0.012119      0.127667
O	      6.15450      4.24226      8.24372        -0.155674      0.016031      0.061131
O	      8.05587      6.24364      8.26889         0.017731      0.218217      0.016315
O	      2.02332      6.49369      6.24175         0.036634     -0.028325     -0.007975
O	      4.04826      8.43378      6.08278        -0.074050     -0.055786     -0.072749
O	      4.25136      6.30749      8.33618         0.048503     -0.042496     -0.032165
O	      6.19730      8.27347      8.21103        -0.006185      0.120430      0.127347
O	      6.17463      6.11570     10.19658         0.040725      0.121977      0.011344
O	      8.24734      8.43769     10.42339         0.156606     -0.092245      0.086701
