# total energy = -219.34160393 eV
 
CRYSTAL
PRIMVEC
-0.023949 6.779837 6.178333 
6.039970 0.022848 6.131004 
4.008718 4.467982 0.032844 
PRIMCOORD
36 1
Li	      8.02358      2.37952      6.27484         0.039275      0.038719     -0.114890
Li	      3.93249      2.36035      2.19215         0.135079      0.096461     -0.031554
Li	      4.01398      0.29948      4.08401         0.041928      0.057864      0.039778
Li	      5.89618      2.25545      4.14758         0.003954     -0.023165     -0.081987
Li	      2.06695      4.33428      2.07052        -0.006838     -0.012782      0.039727
Li	      2.09776      2.21844      4.04864         0.022208     -0.031707      0.078132
Li	      3.99439      4.13262      4.05228        -0.034849     -0.006988     -0.057894
Li	      4.01132      2.20764      5.98189        -0.013816     -0.052106      0.007790
Li	      2.01999      6.72642      4.14973        -0.022862     -0.044120      0.008278
Ti	      4.01651      9.01241      4.22509         0.110920      0.188225      0.102383
Ti	      8.02094      8.91897      8.30368        -0.002946     -0.014929      0.063413
Mn	      2.04663      4.52540      6.14133        -0.010528     -0.027450     -0.013610
Cr	      5.98757      6.80355      8.24127         0.020388     -0.063556      0.068748
Co	      5.98585      0.09094      6.13002         0.065785     -0.010624     -0.441682
Co	      6.18786      4.20951      5.91972         0.137801      0.144366     -0.072849
Cu	      2.00027      0.13938      2.12012        -0.108842      0.128137      0.197577
Cu	      4.03956      6.62804      2.11351        -0.220869      0.135935      0.120801
Cu	      3.99593      6.73022      6.10439        -0.068596      0.073208     -0.091931
O	      6.04232      2.29504      6.23371        -0.048937     -0.066287     -0.031493
O	      1.93165      2.24448      2.07336         0.014032     -0.025533      0.037003
O	      4.07623      4.51164      1.99248        -0.012548     -0.238025      0.450780
O	      4.02335      2.21642      4.06159        -0.071220     -0.022955      0.021824
O	      5.97059      4.46605      4.14835        -0.000597      0.037902      0.034675
O	      7.95878      4.51806      6.21522        -0.336663      0.033552     -0.041195
O	      1.96796      4.59236      4.24120        -0.053293      0.001705     -0.027264
O	      3.99948      7.08336      4.12191         0.095448     -0.141866     -0.103947
O	      3.97463      4.43851      6.23326         0.099045     -0.040494     -0.059430
O	      5.92174      7.03640      6.25201         0.137037      0.055635     -0.186383
O	      5.98012      4.76993      8.24884        -0.022060      0.085474      0.010453
O	      8.01877      7.00321      8.26972         0.133465     -0.042144     -0.036218
O	      2.04989      6.49204      6.23998        -0.023071     -0.068234     -0.035528
O	      4.09170      9.14562      6.13200        -0.076170      0.046631      0.025619
O	      3.96829      6.54518      8.12658         0.032063     -0.063967      0.127900
O	      6.05097      8.83540      8.13146         0.096132      0.004403      0.047259
O	      6.01204      6.62353     10.23327        -0.023752     -0.080089     -0.048204
O	      8.08780      9.01783     10.18824        -0.026103     -0.051196     -0.006079
