# total energy = -219.67364206 eV
 
CRYSTAL
PRIMVEC
-0.020328 6.328393 6.350588 
6.263156 0.011668 6.318711 
4.169511 4.191754 0.013703 
PRIMCOORD
36 1
Li	     10.28108      4.28544      6.42307         0.027382      0.047315     -0.056458
Li	      6.26130      4.15520      2.16521         0.051663     -0.015380      0.091833
Li	      8.21617      4.33267      4.38332        -0.007560      0.018126      0.015692
Li	      6.16990      2.16594      4.21270        -0.015894      0.055035     -0.013842
Li	      8.39887      4.17614      8.27292        -0.046522     -0.019412      0.094058
Li	      2.21241      2.02464      4.25198         0.012603     -0.026501      0.027326
Li	      8.34772      6.16145      6.28452         0.053962      0.010463     -0.053763
Li	      6.36688      4.23327      6.28554        -0.048438     -0.045836     -0.044627
Li	      6.20853      6.41128      8.33156        -0.035990     -0.005350     -0.034419
Ti	      6.27114      4.29556     10.47409        -0.034674      0.095313     -0.308243
Ti	      8.26050      6.34359     10.51781        -0.062050      0.001933     -0.156282
Mn	      4.21916      6.29000      6.36879         0.068633      0.038397     -0.056611
Cr	      0.08050      2.03938      2.06646        -0.017435      0.034386      0.220366
Co	      4.16822      2.08705      2.19302        -0.040783     -0.123209      0.077546
Co	      4.42566      4.09206      4.22833        -0.848680     -0.082874      0.009489
Ni	      8.29883      2.18202      6.35587        -0.043219     -0.116739      0.027166
Ni	      6.23926      8.39273      6.41918        -0.011660      0.019921     -0.074375
Ni	      8.24444      8.45162      8.44303         0.089233     -0.024265      0.007248
O	      8.34581      4.12073      6.31637         0.045245      0.152055      0.045500
O	      2.04025      2.11849      2.07031         0.139434      0.010745      0.071301
O	      4.15858      4.25527      2.24315         0.360038     -0.002459      0.412118
O	      4.15557      2.16633      4.21397         0.068068      0.032815     -0.008650
O	      6.20033      4.20131      4.24091         0.075264      0.096107     -0.041482
O	      6.28668      2.09600      6.49560        -0.117567     -0.088562     -0.117402
O	      1.97120      4.34899      4.29003        -0.072776      0.162018     -0.117176
O	      4.10286      6.35834      4.26718        -0.102580      0.165730      0.040816
O	      4.11752      4.37495      6.30883         0.272467      0.079178     -0.230660
O	      6.08709      6.34617      6.32662        -0.151298     -0.069436      0.003095
O	      6.21509      4.11877      8.60734         0.050132      0.025297      0.326917
O	      8.44710      6.36321      8.60260        -0.038663     -0.055387      0.204428
O	      2.20517      6.36766      6.19636         0.079537     -0.031119     -0.094701
O	      4.13783      8.27119      6.25078         0.023222     -0.079810     -0.058690
O	      4.14021      6.30633      8.23752         0.049776      0.069432     -0.143395
O	      6.20941      8.41859      8.42027        -0.067375     -0.006387      0.029010
O	      6.34839      6.20902     10.56034         0.210941     -0.200299     -0.029270
O	      8.42403      8.33706     10.57467         0.085561     -0.121241     -0.063865
