# total energy = -223.81379276 eV
 
CRYSTAL
PRIMVEC
0.029535 6.052801 6.303675 
6.223999 -0.023378 6.357058 
4.143613 4.064878 -0.009605 
PRIMCOORD
36 1
Li	      6.23464      6.14344     12.49634        -0.011153      0.027267     -0.127350
Li	      8.29336      8.01781     12.59420         0.002108     -0.003291     -0.077982
Li	      6.26173      7.99190     10.50839         0.063382     -0.046310     -0.030611
Li	     10.27965      6.03606      8.41403         0.011162      0.036429     -0.046491
Li	      2.10251      2.01888      4.18195        -0.022320      0.016671      0.037167
Li	      8.35108      6.00951      6.41404         0.005145     -0.023150      0.055841
Li	      8.25628      6.08686     10.47989        -0.037939      0.035755     -0.038844
Li	      8.29247      7.91223      8.57074        -0.022086     -0.064508      0.036294
Li	      6.33379      6.04206      8.51489        -0.000655     -0.010577      0.020966
Ti	      6.33967      3.88436      6.32633         0.380681     -0.280902     -0.095150
Ti	      6.22455      8.07103      6.38406        -0.248975     -0.005526      0.040192
Mn	      6.19305      4.01443     10.47685         0.243818     -0.105871      0.101174
Cr	      4.15174      6.07047      6.36316         0.017363      0.105596      0.086608
Co	      4.14665      2.08116      2.14870         0.053192     -0.124117     -0.143517
Co	      8.33127      4.04946      8.41017         0.086667      0.081978     -0.043458
Co	      4.12832      4.04485      4.23302        -0.122034     -0.044464      0.040089
Ni	      2.04724      0.08192      2.17522         0.026239      0.037912      0.049216
Ni	      4.21336      6.05231     10.47652        -0.047780      0.018744      0.000707
O	      2.23741      2.15944      2.09348        -0.009690      0.160562      0.027564
O	      4.10332      4.02267      2.31802        -0.129600     -0.054128     -0.018650
O	      4.15413      2.11445      4.04467        -0.092309     -0.355529     -0.012673
O	      6.08918      4.07396      4.28815         0.906897      0.118497      0.208046
O	      6.22793      2.07785      6.30722        -0.024369      0.273003     -0.033521
O	      8.19793      4.05622      6.23643        -0.233074     -0.013828      0.208342
O	      2.09603      4.04252      4.36394        -0.676728      0.024885      0.072774
O	      4.15787      6.07975      4.35831        -0.068162      0.282366     -0.049884
O	      4.14304      4.05231      6.23967        -0.045346     -0.006141      0.068742
O	      6.16535      6.10696      6.35470        -0.025220      0.080561      0.015891
O	      6.32621      3.98744      8.28760        -0.028799     -0.021161     -0.097083
O	      8.32844      5.87398      8.42911        -0.001725     -0.142635     -0.018322
O	      2.14502      5.97537      6.41245         0.049780     -0.061718     -0.067794
O	      4.26068      8.07765      6.42926         0.087214     -0.016898      0.185648
O	      4.10761      6.20714      8.40532         0.038815      0.083740     -0.165930
O	      6.19365      8.12950      8.32962        -0.063481     -0.093075     -0.051733
O	      6.21819      5.91391     10.53695         0.107901      0.187908     -0.076120
O	      8.44504      8.08780     10.49651        -0.168922     -0.098044     -0.060147
