# total energy = -225.18385119 eV
 
CRYSTAL
PRIMVEC
0.011800 6.239357 6.251267 
6.348435 0.012126 6.251148 
4.248927 4.176424 -0.008704 
PRIMCOORD
36 1
Li	      2.18890      0.03733      2.13681         0.097810     -0.079050      0.011425
Li	      4.23796      8.27536      8.35896         0.123118     -0.142467      0.055365
Li	      8.26503      4.28593      4.11317        -0.069853      0.040419     -0.121317
Li	      6.39565      8.37865     10.39074        -0.099810      0.097685     -0.124541
Li	      2.19495      2.02862      4.15789         0.002689     -0.033249      0.099151
Li	      8.41588      6.25345      6.17383        -0.180970      0.119056     -0.029618
Li	      6.36486      4.21871      6.22642        -0.163589      0.121293     -0.119809
Li	      6.41941      8.29992      6.30416         0.134817     -0.074998      0.077929
Li	      4.22413      4.20226      8.31559        -0.077836      0.106526     -0.085616
Ti	     10.48067      4.24291      6.31699         0.150422      0.099765      0.042308
Ti	      4.36381      4.03242      4.22592         0.518868     -0.165959      0.811900
Mn	      2.13033      6.25003      4.19188         0.260475     -0.068383      0.026466
Cr	      6.31881      6.33687      8.31532        -0.977582      0.650639     -0.737263
Co	      4.33036      6.29724      6.31369         0.038732     -0.301692     -0.434413
Co	      6.36439      2.17153      8.28373        -0.058213      0.018233      0.176670
Co	      2.12875      4.11547      2.05784        -0.092396      0.068000      0.101274
Co	      4.28618      8.31415      4.17644         0.105947     -0.142812      0.311209
Cu	      8.44956      2.09529      6.24427         0.191060     -0.120697     -0.113594
O	      2.04610      2.11901      1.94794        -0.174246      0.086050      0.132040
O	      4.25387      4.17085      2.01382        -0.072058      0.037673     -0.355302
O	      4.17392      2.22155      4.15729        -0.059743      0.323037      0.046876
O	      6.21170      4.19315      4.12980        -0.208402     -0.004264     -0.108067
O	      6.21782      1.93086      6.25222        -0.030191     -0.281885      0.001802
O	      8.60459      4.11960      6.14192         0.206662     -0.000563      0.072642
O	      2.20000      4.30041      4.14985        -0.342024     -0.060720     -0.119127
O	      4.09065      6.19942      4.17346        -0.050138      0.445976     -0.333339
O	      4.25551      4.32723      6.11838         0.023329     -0.223941     -0.273490
O	      6.31349      6.25397      6.39392         0.694255     -0.071958      0.214951
O	      6.38466      4.31135      8.39339         0.123718     -0.550480      0.644652
O	      8.41261      6.24472      8.48652         0.191405     -0.124313     -0.000422
O	      2.09219      6.24290      6.12022        -0.464810      0.083995      0.022565
O	      4.37394      8.29073      6.22610        -0.369975      0.422532     -0.734304
O	      4.38676      6.24835      8.28916         0.394801     -0.125104      0.587097
O	      6.42534      8.12046      8.37672         0.109254      0.057444      0.094317
O	      6.53920      6.24421     10.45772        -0.136472     -0.288731      0.220693
O	      8.53560      8.17626     10.49912         0.260944      0.082945     -0.061108
