# total energy = -225.28370459 eV
 
CRYSTAL
PRIMVEC
0.015810 6.293071 6.284277 
6.168594 0.008857 6.290235 
4.117328 4.204378 0.001678 
PRIMCOORD
36 1
Li	      6.12420      0.10061      6.21339        -0.018889     -0.033282     -0.028403
Li	      8.19739      2.11671      6.28282         0.100480     -0.005379     -0.005037
Li	      2.09658      6.33257      8.27738         0.021202      0.026461     -0.034002
Li	      6.17487      1.99224      4.39287        -0.069308     -0.064057      0.046867
Li	      8.33014      6.19826      6.31004        -0.085778     -0.075766     -0.054129
Li	      6.26223      4.12152      6.29323         0.067422      0.072022     -0.024032
Li	      6.16869      4.30488     10.52511         0.067974      0.037397      0.092820
Li	      8.13482      6.31301     10.54777        -0.062791     -0.097655      0.086101
Li	      6.16315      6.32265      8.46808         0.024543      0.015681      0.031676
Ti	      4.25821      4.18565      4.18368         0.265131      0.112362      0.140753
Ti	      8.18159      8.42475      8.56216        -0.138515     -0.025571     -0.339535
Mn	      6.18106      2.11855      8.29917         0.117372      0.143205     -0.159544
Cr	      2.04337      4.22611      6.23355        -0.048163     -0.093498     -0.139759
Co	      6.18685      6.28767      4.19894        -0.372085      0.265591     -0.100515
Co	      8.27472      4.18208      4.29695        -0.027508     -0.074779      0.159041
Co	      8.18058      4.26381      8.29209        -0.085955     -0.010693     -0.090102
Co	      4.10500      6.33091      6.23516         0.102409     -0.041615      0.080977
Ni	      4.15779      8.36317      8.35433        -0.030853      0.006082     -0.098283
O	      1.97384      2.16934      2.11623        -0.003381     -0.158050      0.505975
O	      4.12243      4.29467      2.17995         0.058036      0.167318      0.076784
O	      4.14779      2.24369      4.10472        -0.323287     -0.573393      0.262058
O	      6.17654      4.19228      4.22673        -0.173307     -0.150696     -0.012980
O	      6.19566      2.08961      6.47880        -0.020910      0.014931      0.108301
O	      8.24478      4.22644      6.22537        -0.087445      0.041278     -0.384960
O	      2.15664      4.20931      4.19837         0.177635      0.105664     -0.047025
O	      4.10036      6.18220      4.05438         0.466799      0.087568      0.543401
O	      4.08491      4.31957      6.19213         0.025568      0.124804     -0.039584
O	      6.00258      6.40615      6.23693         0.180617     -0.054671     -0.447916
O	      6.08225      4.05739      8.36888        -0.130453     -0.084268      0.063596
O	      8.33342      6.40682      8.34434         0.040828      0.186993      0.072571
O	      2.23558      6.23171      6.27350        -0.097848     -0.084257     -0.047601
O	      4.16330      8.25334      6.35369        -0.012051     -0.143708     -0.155155
O	      4.15293      6.21641      8.48829        -0.044789     -0.235191     -0.179820
O	      6.27489      8.38522      8.24419         0.313912     -0.006163      0.136553
O	      6.02748      6.29767     10.53476        -0.310273     -0.079307     -0.180577
O	      8.16586      8.37783     10.36903         0.113662      0.684641      0.161484
