# total energy = -229.16845641 eV
 
CRYSTAL
PRIMVEC
0.036751 6.325705 6.063090 
6.355860 0.044446 6.054963 
4.256348 4.231123 0.011167 
PRIMCOORD
36 1
Li	     10.58944     10.56196     12.04144        -0.033660     -0.148088      0.056360
Li	      4.42849      6.41024     10.15755        -0.003122      0.106521     -0.010972
Li	      6.41977      8.33128     10.17876        -0.128918      0.034417     -0.033664
Li	      8.46167      4.30916      8.13498         0.011009     -0.002646      0.004571
Li	      2.13312      2.30005      4.06056         0.177935     -0.017205      0.008348
Li	      4.23319      2.13089      5.97772        -0.027504     -0.002526     -0.140449
Li	      4.32950      8.49645      4.15092         0.027890      0.081869      0.077073
Li	      6.33557      8.34565      5.97363        -0.036914      0.013615      0.043326
Li	      4.29187      6.40687      5.96972        -0.024940      0.033344      0.058490
Ti	      2.20198      6.31792      8.01444         0.016756     -0.402618      0.009119
Ti	      6.42537      4.34203      5.91964         0.003635      0.187788     -0.301033
Mn	     10.60533      6.38800      8.09790         0.118266     -0.170771     -0.007720
Cr	      8.51035      8.46203      8.13006        -0.161271      0.206012     -0.067961
Co	      4.14303      4.21374      4.10146         0.440423     -0.242138     -0.186448
Co	      6.37268      6.34204      8.13316        -0.084622      0.111481     -0.041888
Co	      8.48814      2.17321      6.05425         0.277479     -0.187827      0.019074
Co	      4.24722      2.16686      2.05165        -0.249733     -0.114711     -0.553560
Co	      2.11414      6.32096      4.08177         0.018411     -0.028147      0.159990
O	      2.16466      2.01951      1.95734        -0.134343      0.194106      0.089576
O	      4.41997      4.27548      1.99731         0.067402      0.405854     -0.072253
O	      4.26951      2.16481      3.89124        -0.141835      0.236639      0.572306
O	      6.35453      4.26405      4.01420        -0.116866      0.033686      0.040019
O	      6.49987      2.23116      6.14717        -0.010067      0.009634      0.015218
O	      8.35883      4.12492      6.07600        -0.113151     -0.011725      0.009699
O	      2.14368      4.36823      4.06264        -0.147532      0.074093     -0.003458
O	      4.12972      6.31586      3.95770        -0.129902     -0.069826      0.005922
O	      4.41864      4.18961      6.13294         0.085697     -0.029487      0.168329
O	      6.41761      6.22177      6.07620         0.008787     -0.177979      0.182120
O	      6.25669      4.18706      8.01729         0.080324     -0.144525      0.154305
O	      8.47028      6.46023      8.17717         0.239581     -0.096334      0.079223
O	      2.18483      6.47444      6.08979        -0.019666      0.071306     -0.089257
O	      4.12061      8.44612      6.23030        -0.146793      0.195789     -0.209997
O	      4.18521      6.28426      8.13030        -0.053474     -0.165917     -0.006064
O	      6.44617      8.59165      8.00818         0.092082      0.083088      0.030441
O	      6.52590      6.35019     10.08875         0.106004     -0.030480     -0.135162
O	      8.50446      8.31994     10.16545        -0.007367     -0.036291      0.076376
