# total energy = -101.46586440 eV
 
CRYSTAL
PRIMVEC
0.000479 2.137101 2.137848 
5.777559 0.213990 -2.353005 
-1.838626 7.335063 -5.200163 
PRIMCOORD
16 1
Li	      0.20635      2.68222      1.59633         0.012683     -0.014461      0.006450
Li	      1.94704      2.77770     -0.64174         0.027332      0.010009     -0.004084
Li	      4.08507      2.91513     -2.91836        -0.016036      0.009666     -0.003885
Li	      0.12670      4.32170     -0.04708        -0.007326      0.007165     -0.000917
Ti	     -0.08971      7.05328     -2.78517        -0.077614     -0.018957      0.021621
Ti	      1.87050      7.31989     -5.18538         0.041587      0.227078     -0.228387
Ni	      2.06662      4.58649     -2.44918        -0.064419      0.071391     -0.064605
Ni	      3.88544      4.86427     -4.86451         0.042635      0.024648     -0.028107
O	      3.93129      5.01555     -2.87819         0.167838     -0.087113      0.087204
O	      1.76544      9.19366     -4.91992         0.020812     -0.215789      0.219124
O	      1.85482      7.31915     -3.04184        -0.194657      0.003422     -0.016992
O	      2.09566      2.64130     -2.64082        -0.020883     -0.162766      0.149705
O	      3.78835      7.07730     -4.93921         0.049461      0.062986     -0.071075
O	     -0.06859      6.94127     -4.80582         0.062833     -0.067782      0.080575
O	      0.12643      5.08675     -2.95196        -0.048335      0.156071     -0.143593
O	      0.12049      2.37740     -0.23760         0.004089     -0.005568     -0.003036
