# total energy = -215.57672752 eV
 
CRYSTAL
PRIMVEC
0.013859 6.175579 6.220423 
6.248790 0.000097 6.233848 
4.189957 4.150003 -0.023916 
PRIMCOORD
36 1
Li	      8.47257      8.26495     12.32774         0.052558      0.014500     -0.036247
Li	      4.16713      8.25801      8.19313        -0.014403      0.028293     -0.080376
Li	      8.42547     10.26994     10.36659         0.039096      0.008191      0.030659
Li	      6.31004      8.21641     10.38567         0.016933     -0.019510      0.026017
Li	      2.11965      4.13941      2.12717        -0.014074     -0.028426     -0.016272
Li	      6.27063      4.12985      6.15588        -0.011851     -0.050584      0.000560
Li	      4.21334      8.35167      4.23513        -0.060958      0.050572     -0.014616
Li	      2.03955      6.14188      4.20517        -0.018051     -0.007199      0.019335
Li	      4.15099      6.25360      6.16786         0.012584      0.071691     -0.009921
Ti	      6.27493      2.14975      8.35343         0.143569      0.150887     -0.101828
Ti	      8.31141      6.10618      6.11659         0.012823     -0.333852     -0.174905
Mn	      2.10022      6.17425      8.25934         0.059355      0.013523     -0.008112
Cr	      8.35609      8.30057      8.38553        -0.008677      0.110740      0.259269
Cu	      4.15836      4.12650      4.14473         0.147783      0.022328     -0.066527
Ni	      6.27546      6.15770     12.35829        -0.014912      0.070917     -0.125853
Ni	      6.26054      6.21981      4.14295        -0.017560     -0.060593      0.030743
Ni	      2.06327      4.13896      6.18390        -0.106402      0.042887      0.063502
Ni	      6.25319      6.17392      8.39445        -0.030517      0.048324      0.077484
O	      1.99359      1.95647      2.06106        -0.105874      0.028796     -0.057848
O	      4.32649      4.20952      1.85968        -0.035205      0.003138      0.475557
O	      4.14457      2.12040      4.25469         0.057704     -0.023547      0.159343
O	      6.14867      4.18505      3.96759         0.011365     -0.127205     -0.068224
O	      6.14132      1.99648      6.32165        -0.118500      0.273137      0.192043
O	      8.33588      4.24496      6.22851        -0.195166      0.322940     -0.003665
O	      2.22294      4.06521      4.15480        -0.082770      0.145843     -0.134038
O	      4.19343      6.13048      3.99836        -0.101473     -0.069946     -0.107462
O	      4.16896      4.00096      6.45517         0.088952     -0.050457     -0.171283
O	      6.34268      6.21014      6.31730         0.119231     -0.180306     -0.074304
O	      6.20045      4.05630      8.31878         0.008542     -0.236439      0.051870
O	      8.41805      6.25742      8.26465         0.121574      0.062075     -0.057578
O	      2.13254      6.18502      6.34354         0.143501      0.151306      0.115651
O	      4.22731      8.39820      6.17919        -0.022524     -0.412372      0.078655
O	      4.09133      6.08758      8.31289        -0.109727     -0.088898     -0.029259
O	      6.36022      8.35119      8.27927         0.027636      0.076649      0.101255
O	      6.27131      6.19731     10.38904        -0.016940      0.027704     -0.214950
O	      8.34087      8.23791     10.18600         0.022380     -0.035107     -0.128677
