# total energy = -214.60705557 eV
 
CRYSTAL
PRIMVEC
-0.022104 6.277154 6.318237 
6.128962 -0.001313 6.297778 
4.101619 4.186706 -0.016491 
PRIMCOORD
36 1
Li	      1.99561      2.08325      0.07114        -0.117841     -0.047079      0.116650
Li	      6.12284      2.10429      4.24257        -0.094209      0.043952      0.059030
Li	      0.08402      2.09721      2.06933         0.071654     -0.173508     -0.020293
Li	      8.07677      4.19556      8.49716         0.160481     -0.000146     -0.082416
Li	      2.01623      2.17499      4.21512        -0.012956     -0.071922      0.020221
Li	      4.04603      4.21274      4.25567         0.125703      0.029777      0.011188
Li	      6.11231      4.23191      6.35611         0.044508      0.010649     -0.216204
Li	      2.04083      4.11963      6.21342         0.049967      0.019635      0.108490
Li	      6.15225      6.18965      8.26332        -0.026184      0.039496     -0.115301
Ti	      8.05829      4.19873      4.24242        -0.661161      0.632667      0.162780
Ti	      8.22387      8.22679      8.31804        -0.808445     -0.238501     -0.710306
Mn	      6.15346      0.03004      6.30400         0.090966      0.346185      0.247043
Cr	      4.09112      8.38835      8.38127        -0.024793     -0.153157      0.382885
Cu	      2.04330      0.03340      2.08305        -0.010204      0.134824      0.075789
Cu	      4.20205      6.27107      6.21806         0.080536     -0.247366      0.442044
Ni	      2.04716      6.24229      4.22272        -0.076520      0.137106     -0.038364
Ni	      4.04951      2.09811      6.24839        -0.107308     -0.065511      0.073926
Ni	      0.03620      4.16605      4.22606         0.632759     -0.122865      0.037223
O	      6.14765      6.26900      6.30825        -0.009998      0.085675     -0.048086
O	      2.15116      1.94732      2.09860        -0.105721      0.211331     -0.030565
O	      4.11129      4.11020      1.95310        -0.243529      0.019381     -0.157319
O	      4.12062      1.95598      4.10846        -0.017857     -0.252613     -0.188729
O	      6.23333      4.15203      4.22885         0.507415     -0.078116      0.124820
O	      6.05677      1.91217      6.31267         0.279046      0.025920     -0.038185
O	      8.26424      4.21232      6.18196        -0.020987     -0.217378     -0.251306
O	      1.98917      4.25715      4.18536        -0.812203     -0.374079     -0.166187
O	      4.04062      6.34861      4.32012         0.235013      0.448746     -0.338165
O	      4.09026      4.11847      6.41313         0.012183      0.097633      0.473449
O	      6.00319      4.17059      8.43716         0.255811     -0.008778      0.693718
O	      8.12183      6.37444      8.43391        -0.036445      0.502772     -0.015252
O	      1.93687      6.32368      6.26067        -0.218849      0.020929      0.085849
O	      4.06689      8.52931      6.37422        -0.027001     -0.059418     -0.765667
O	      4.09135      6.30889      8.40557         0.354425     -0.135145      0.217969
O	      6.14040      8.55599      8.40234         0.394156     -0.297365      0.035274
O	      6.08831      6.22122     10.66520        -0.132670     -0.263745     -0.051803
O	      8.20796      8.47464     10.38099         0.270258      0.000015     -0.134200
