# total energy = -215.25585972 eV
 
CRYSTAL
PRIMVEC
-0.007085 6.102808 6.518970 
6.190762 0.004274 6.508464 
4.138286 4.071990 -0.007867 
PRIMCOORD
36 1
Li	      4.18051      4.11308      0.15340        -0.004593      0.007292      0.056187
Li	      1.98984      0.08952      2.06711        -0.093688      0.045960      0.004581
Li	      4.05418      2.16899      2.10534        -0.033852      0.057817     -0.021555
Li	      4.17905      6.04049      2.24082         0.003141      0.019694      0.079396
Li	      2.01801      2.05491      4.15937         0.016439     -0.018461     -0.102363
Li	      4.08053      4.12412      4.15428        -0.016471      0.005198     -0.096879
Li	      8.27013      6.10533      6.57896         0.010544     -0.052241      0.020417
Li	      2.10959      6.03806      4.41565         0.039555     -0.012603      0.072016
Li	      4.08304      6.05443      6.62540         0.013909      0.029385      0.039995
Ti	      4.07395      0.11602      4.29327        -0.148489      0.233748      0.031070
Ti	      4.25629      7.94760      4.47339         0.234752     -0.414380      0.093922
Mn	      6.18908      8.15758     10.77618        -0.095518      0.018060     -0.091675
Cr	      6.21889      8.17923      6.61823         0.073049     -0.128317     -0.083502
Cu	      2.12928      4.09804      2.16639        -0.037023      0.022759      0.056697
Cu	      6.11006      4.12406      6.45295         0.011406     -0.060671     -0.103323
Cu	      4.18218      3.99474      8.65767         0.069699     -0.126735      0.121215
Cu	      6.22653      6.07935      8.67450         0.006558      0.030044      0.049936
Ni	      2.04712      1.98684      0.08008         0.061575     -0.005550     -0.061261
O	      6.18673      6.07849      6.70102         0.004693      0.149198     -0.123252
O	      8.23147      6.01488      8.70962         0.064990      0.259920      0.041696
O	      2.06372      2.22023      2.08682        -0.040649     -0.281977      0.060139
O	      3.95457      4.12623      2.12293         0.375355      0.057663     -0.066962
O	      4.26511      2.00805      4.27101         0.040163     -0.226650     -0.022281
O	      6.27702      3.97294      4.09340         0.163075      0.005305     -0.148366
O	      6.21562      2.13458      6.16823        -0.121444      0.070861     -0.068179
O	      8.14027      4.02495      6.18535         0.013524      0.098689     -0.274643
O	      1.99761      4.02097      4.63950        -0.222491      0.017470      0.043214
O	      4.14764      6.16877      4.36085         0.034769      0.364140      0.015967
O	      4.12915      4.04101      6.72105        -0.121946     -0.016724     -0.026898
O	      6.42001      4.13558      8.94308        -0.120366     -0.218373      0.156029
O	      2.05630      6.06731      6.61258         0.012090     -0.172497     -0.004649
O	      4.13833      8.16420      6.37423         0.103360      0.002123     -0.087294
O	      4.23798      5.98596      8.82826        -0.178839      0.023803      0.092989
O	      6.10457      8.03986      8.73217        -0.031725      0.197925      0.091891
O	      6.11778      6.20018     10.79326        -0.106499      0.056277      0.183607
O	      8.22425      8.16426     10.74859         0.020948     -0.038154      0.072118
