# total energy = -215.43896524 eV
 
CRYSTAL
PRIMVEC
0.037637 6.211748 6.264766 
6.455721 0.032982 6.269715 
4.292654 4.133587 0.033077 
PRIMCOORD
36 1
Li	     10.53421      4.22773      6.32827         0.009361     -0.025870      0.000521
Li	      8.57989      4.24075      4.40018        -0.097802      0.006051     -0.052506
Li	      6.49036      2.29109      8.17191        -0.003226     -0.069111      0.017311
Li	      8.52465      4.13119      8.25154         0.080244     -0.009762      0.042699
Li	      2.26546      2.12857      4.30007         0.060612     -0.047832      0.015507
Li	      8.67201      6.10691      6.36097         0.077951      0.020045      0.037331
Li	      6.56831      4.17638      6.36488         0.014083      0.028064     -0.147763
Li	      6.49349      8.19544      6.29605         0.047060      0.033890     -0.038088
Li	      4.50873      4.15213      8.25372        -0.013695      0.008193      0.015310
Ti	      6.36192      4.14720      2.09221        -0.106719      0.067710      0.503040
Ti	      8.60498      6.17465     10.26583         0.064944     -0.076591     -0.389343
Mn	      4.31647      6.19085      6.29111         0.064537     -0.143979     -0.050317
Cr	      4.33434      4.11886      4.25072         0.139042     -0.209576     -0.105868
Cu	      8.54892      2.16106      6.25181        -0.145272      0.064992      0.229689
Cu	      4.25902      2.06089      2.12076        -0.075499      0.021003      0.125457
Cu	      6.43263      2.09914      4.25385         0.083264     -0.127339      0.075443
Cu	      6.48407      4.17114     10.39360        -0.052068      0.115127      0.064022
Cu	      6.48392      6.22311      8.33871         0.139428      0.162546     -0.251768
O	      4.20827      8.14929      6.12421         0.092593      0.165772     -0.091859
O	      6.63707      6.27025     10.39289        -0.111548     -0.446160      0.158842
O	      8.53161      8.20591     10.53678         0.186224     -0.147263     -0.267771
O	      2.16806      1.95586      2.03865        -0.040113     -0.065660      0.017208
O	      4.42398      4.05373      2.16517         0.118330     -0.014935     -0.018053
O	      4.39368      2.14252      4.32594        -0.287584      0.056203     -0.190074
O	      6.38440      4.12157      4.07329        -0.083202      0.508184     -0.375726
O	      6.57608      2.09712      6.19675        -0.081314     -0.058760      0.211374
O	      8.60277      4.08866      6.30283        -0.006897      0.201146      0.059160
O	      2.31106      4.23229      4.20151         0.147885      0.182401     -0.007182
O	      4.22547      6.17591      4.33943        -0.051823     -0.074343      0.076859
O	      4.30625      4.29394      6.22822         0.020846      0.068549      0.126347
O	      6.21484      6.23959      6.37613        -0.131663      0.007031     -0.013980
O	      6.50281      4.27260      8.49145        -0.036024      0.045343      0.142511
O	      8.79916      6.27348      8.47578         0.071631     -0.000661      0.388613
O	      2.28642      6.19432      6.31176         0.053798     -0.101913     -0.030997
O	      4.13394      6.26933      8.22865        -0.157867     -0.039624     -0.105711
O	      6.37953      8.30677      8.45182         0.010483     -0.102870     -0.170240
