# total energy = -222.42378678 eV
 
CRYSTAL
PRIMVEC
0.061458 6.189001 6.481854 
6.210202 0.046065 6.495820 
4.163983 4.159340 0.007091 
PRIMCOORD
36 1
Li	      6.21068      4.14396      2.19561         0.032931     -0.015763      0.043977
Li	      6.31440      8.27923     10.75160        -0.097412      0.059819     -0.050800
Li	     10.25760      6.25753      8.70180         0.138925     -0.033242     -0.027666
Li	      4.13871      4.18652      4.28109         0.090441     -0.042760     -0.000269
Li	      8.28274      6.27373      6.68901        -0.057578      0.009431     -0.082153
Li	      8.31843      6.25099     10.65605        -0.023354      0.029351      0.026022
Li	      6.28055      8.26158      6.53560         0.012194     -0.038620      0.123462
Li	      8.29220      8.16713      8.73146        -0.055703      0.123707     -0.082759
Li	      6.37378      6.28351      8.69050        -0.130893      0.025791     -0.027712
Ti	      6.21504      4.08239      6.57327         0.047848     -0.089601     -0.008048
Ti	      4.08755      6.18843      6.52072         0.167671     -0.027198      0.439877
Mn	      4.23936      6.18532     10.77086        -0.170550      0.370673     -0.366662
Cr	      2.09806      2.10943      4.34792         0.117257     -0.614353      0.087237
Fe	      4.22492      2.13722      2.21409        -0.031731     -0.178651      0.014318
Co	      6.31527      6.26610     12.96319        -0.102676     -0.099245      0.108582
Cu	      8.33877      8.29715     12.93706         0.010970      0.086234      0.013441
Cu	      8.34125      4.27621      8.69891         0.095150     -0.087482      0.071934
Cu	      6.25110      4.19587     10.74541        -0.011432     -0.030956      0.067131
O	      8.32752      6.19945      8.65246         0.025775     -0.049729      0.051709
O	      2.27440      2.16595      2.34653        -0.444275      0.187591     -0.012747
O	      4.13641      4.11011      2.13246         0.003813      0.312092      0.054735
O	      4.12491      1.98092      4.24898        -0.036621      0.069374      0.182446
O	      6.36204      4.23425      4.44746        -0.092508     -0.033033      0.023664
O	      6.28287      2.16713      6.44543        -0.095487      0.139895     -0.040729
O	      8.25980      4.14051      6.47406         0.003381     -0.063790      0.308877
O	      2.03472      4.07897      4.29455        -0.189383      0.480742      0.028692
O	      4.24497      6.29690      4.50280        -0.052177      0.093511     -0.112666
O	      4.25659      4.24448      6.50398         0.093308      0.080740     -0.037467
O	      6.16477      6.15151      6.38156        -0.024742     -0.008271      0.017865
O	      6.35505      4.16012      8.42256        -0.177909     -0.002694     -0.116628
O	      2.21140      6.24531      6.46180        -0.222879     -0.098486     -0.032758
O	      4.13002      8.24073      6.65813         0.081056      0.005123     -0.152357
O	      4.19069      6.30799      8.50571        -0.058224     -0.204996     -0.366943
O	      6.08138      8.31825      8.64578         0.715501      0.072039     -0.004976
O	      6.17095      6.17951     10.88617         0.217714     -0.097902     -0.128700
O	      8.42675      8.44176     10.68407         0.221603     -0.329343     -0.011930
