# total energy = -219.79888329 eV
 
CRYSTAL
PRIMVEC
-0.015036 6.166492 6.270261 
6.308900 -0.019427 6.274185 
4.215589 4.123442 -0.022625 
PRIMCOORD
36 1
Li	      6.26258      6.13127     12.42284        -0.032708     -0.007691      0.046345
Li	      8.45822      8.22977     12.40526         0.054143     -0.005703     -0.051253
Li	      8.28183      4.15010      8.32401        -0.046311     -0.005054     -0.031178
Li	      4.21860      4.11356      4.16910         0.009247     -0.007408     -0.025977
Li	      6.35435      4.09323      6.36626         0.027774      0.007017      0.080341
Li	      6.26743      4.23199     10.39545        -0.007158     -0.074465      0.020926
Li	      8.21631      6.13020     10.47643        -0.061584     -0.020329      0.027359
Li	      6.28249      8.23009      6.22879        -0.029650      0.007418      0.001790
Li	      6.35928      6.02513      8.48963         0.038839     -0.081262      0.004282
Ti	      2.08994      2.19785      4.21771         0.006304      0.573305      0.087397
Ti	      4.04801      6.09530      6.23774        -0.392461      0.088054     -0.079049
Mn	      8.41747      6.14291      6.26729         0.082915     -0.054232      0.128043
Cr	      6.28441      2.03815      8.34446        -0.028897      0.051263      0.051274
Fe	      4.27431      8.29907      8.26187        -0.134512      0.040065      0.044560
Cu	      6.30038      4.10977      2.08397         0.110165      0.028849     -0.104599
Ni	      6.35750      8.18999     10.47887        -0.041204      0.093920      0.076911
Ni	      8.47777     10.21843     10.47734        -0.011847      0.046966     -0.027902
Ni	      8.45752      8.20785      8.41771        -0.024612     -0.047271     -0.074194
O	      2.09938      2.00039      2.16971        -0.016863      0.146765      0.076681
O	      4.25872      4.09741      2.05971        -0.013010      0.017365      0.007457
O	      4.15949      2.06133      4.24632        -0.115472      0.059834     -0.004596
O	      6.41477      4.15291      4.05521        -0.128891      0.115866      0.187033
O	      6.12152      2.05960      6.33577        -0.080190     -0.009494      0.098766
O	      8.39727      4.27731      6.24261        -0.004442      0.144725      0.103048
O	      2.12343      4.00628      4.14816        -0.017445     -0.602680      0.012805
O	      4.33616      6.11997      4.23776         0.156967      0.028227      0.042583
O	      4.18971      4.13223      6.30755         0.020520      0.069628     -0.055560
O	      6.40378      6.16012      6.13927        -0.052016      0.027956     -0.188737
O	      6.27206      3.96960      8.39221         0.084215      0.029782     -0.018838
O	      8.47445      6.16462      8.18239         0.082549     -0.133171     -0.097784
O	      2.21175      6.14454      6.28885         0.461430     -0.012347     -0.083071
O	      4.20611      8.07048      6.34256        -0.000128     -0.221321     -0.102490
O	      4.24154      6.21601      8.25400        -0.124332      0.031320     -0.132282
O	      6.24211      8.31074      8.39927         0.104059     -0.159604     -0.096976
O	      6.25649      6.19972     10.45039         0.064426     -0.055528     -0.001616
O	      8.35746      8.22768     10.42808         0.060179     -0.110766      0.078499
