# total energy = -218.78012749 eV
 
CRYSTAL
PRIMVEC
0.019493 6.323592 6.270058 
6.231899 -0.010175 6.299645 
4.143599 4.224441 0.004328 
PRIMCOORD
36 1
Li	      4.20135     10.45453      6.34640         0.000428     -0.015832      0.041721
Li	      6.06895      4.34063      2.20190        -0.033713      0.064276      0.011852
Li	      4.10412      2.21032      2.03395         0.011206      0.004076      0.014517
Li	      8.19382      4.26749      4.25337        -0.016887      0.036902      0.010922
Li	      4.24482      6.18149      2.24233         0.012301     -0.050270     -0.033894
Li	      6.13112      6.25975      4.16427         0.065048     -0.070371     -0.045732
Li	      4.21103      4.29702      4.11436        -0.000984     -0.067821     -0.027506
Li	      4.21584      8.28845      4.29145        -0.034928      0.016545      0.001865
Li	      4.11911      6.41044      6.14774        -0.040934      0.030383      0.032399
Ti	      4.19784      4.28772      8.36863         0.070419      0.249945     -0.049180
Ti	      6.19661      6.34445      8.41788        -0.260231      0.010859      0.065064
Mn	      4.19978      2.05026      6.22252         0.067976     -0.068747     -0.376229
Cr	      2.14941      8.38061      6.29592        -0.221586      0.093115      0.025597
Fe	      2.27264      4.10210      2.17179        -0.255995     -0.064212     -0.159367
Cu	      6.20256      2.18347      4.19865        -0.107749      0.053144     -0.087662
Cu	      2.17346      6.27277      4.23467        -0.088411      0.064627      0.004510
Ni	      6.22219      4.23844      6.21078         0.000999      0.002057      0.014468
Ni	      1.98284      4.28670      6.19855         0.037101      0.031816      0.098392
O	      4.02383      6.30955      4.18609         0.105291      0.001922      0.023982
O	      2.06477      2.16688      2.02580        -0.035420     -0.074232      0.018558
O	      4.10084      4.22160      2.09037         0.253767      0.020452      0.017641
O	      4.24839      2.05259      4.33440        -0.178035      0.005057      0.217162
O	      6.22118      4.14775      4.22500        -0.015421      0.103319     -0.171621
O	      6.23898      2.15509      6.17880         0.078736     -0.079838      0.238196
O	      8.26331      4.12587      6.39678         0.085479     -0.064164     -0.039298
O	      2.06092      4.28262      4.14627        -0.028739     -0.061495      0.003154
O	      4.11424      4.21549      6.46879        -0.017849      0.076176      0.189980
O	      6.30865      6.36002      6.37494         0.029518      0.028225      0.073849
O	      6.14950      4.33651      8.35765        -0.052378      0.135002      0.064302
O	      8.25248      6.35535      8.19988        -0.007381      0.040091      0.034237
O	      2.07029      6.40218      6.28554         0.046912     -0.027042     -0.003806
O	      4.10291      8.43483      6.25973         0.028493     -0.063991      0.030118
O	      4.28654      6.19259      8.44004         0.234066     -0.180627     -0.019255
O	      6.31321      8.33862      8.37908         0.069510     -0.077440     -0.140149
O	      6.43022      6.39669     10.29771         0.100596     -0.049763     -0.055842
O	      8.27228      8.37413     10.40804         0.098793     -0.052143     -0.022944
