# total energy = -219.70724769 eV
 
CRYSTAL
PRIMVEC
0.019217 6.200188 6.465624 
6.212961 0.012650 6.472545 
4.142667 4.138676 0.007549 
PRIMCOORD
36 1
Li	      4.25975     10.25172      6.48656        -0.016255      0.027270      0.023969
Li	      2.06247      2.05290      0.11466         0.012251      0.002544     -0.044348
Li	      2.08406      6.24755      8.44064         0.021019     -0.044476     -0.044216
Li	      2.09963      4.06738      2.15095         0.012788      0.056164     -0.042732
Li	      2.01825      2.13642      4.04538        -0.029677      0.005027     -0.053442
Li	      6.23178      4.15760      6.53424        -0.043768      0.040636      0.001396
Li	      2.18727      6.11526      4.43125         0.008167      0.026907     -0.008718
Li	      4.08825      6.21750      6.41724         0.050033     -0.019316     -0.083006
Li	      4.18315      4.15667      8.63947        -0.027283     -0.008480      0.056426
Ti	      8.15967      4.13525      4.39962        -0.187023     -0.150712      0.165319
Ti	      6.26303      8.21609     10.87917         0.222515      0.063220     -0.059928
Mn	      4.07725      4.20297      4.23173         0.128185     -0.036650      0.100449
Cr	      8.26739      6.25793      6.53076        -0.081896      0.015201      0.095245
Fe	      6.26716      6.17076      8.65282         0.002038      0.030487      0.014727
Cu	      4.04511      2.10240      2.08730         0.096693      0.052820     -0.095005
Cu	      0.14598      4.06584      4.29189         0.034926     -0.118328      0.068505
Cu	      2.07503      4.16727      6.43186         0.077193     -0.204538      0.062090
Ni	      6.26863      2.08587      8.56594        -0.117971     -0.015193      0.002770
O	      2.09074      6.00468      6.45748        -0.009237      0.223941     -0.004266
O	      4.35388      8.23484      6.22010        -0.149261     -0.008293      0.057946
O	      2.11392      2.04635      2.03183         0.035361      0.013414      0.025546
O	      4.18583      4.10157      2.32899        -0.005373     -0.071894     -0.178345
O	      4.18491      2.10611      4.49964         0.037646     -0.211650      0.006110
O	      6.21486      4.06762      4.39452         0.283607     -0.055489     -0.007031
O	      6.13885      2.08732      6.41178         0.003356      0.005857     -0.086089
O	      8.25684      4.25847      6.30568         0.002361     -0.019663     -0.131553
O	      2.24266      4.12507      4.13977        -0.261270     -0.041898     -0.067338
O	      4.17653      6.07937      4.18092         0.074661      0.230796      0.040762
O	      4.01589      4.14172      6.29438         0.097359     -0.023785      0.065408
O	      6.25150      6.36488      6.66219         0.008785     -0.049984     -0.097290
O	      6.20262      4.19221      8.79384        -0.013870     -0.040192     -0.087679
O	      8.25624      6.28208      8.50920         0.030749      0.014980     -0.005546
O	      4.20996      6.28854      8.87852        -0.038138     -0.047307      0.059477
O	      6.11671      8.21738      8.95144         0.025123      0.032738      0.207695
O	      6.13294      6.28406     10.79172        -0.030349      0.197891      0.040952
O	      8.17855      8.40427     10.88302        -0.253445      0.127954      0.001739
