# total energy = -220.29672714 eV
 
CRYSTAL
PRIMVEC
-0.036137 6.259192 6.165048 
6.362653 -0.036925 6.165116 
4.227183 4.158246 -0.009864 
PRIMCOORD
36 1
Li	      0.12798      6.15235      6.15412         0.043822      0.037347     -0.056479
Li	      2.17480      8.12621      6.17762        -0.012835     -0.103975     -0.091244
Li	      2.03156      6.25425      8.12737         0.048385     -0.055544      0.001846
Li	      6.20204      6.26744      4.11536         0.030948     -0.048768      0.053500
Li	      4.25428      4.25674      4.11665         0.035718     -0.075458      0.040730
Li	      2.23761      6.26900      4.17434        -0.012030      0.023330      0.007229
Li	      4.13146      6.27185      6.12427        -0.048533     -0.029109      0.060540
Li	      8.42243      8.23642      8.20295        -0.035831      0.014890      0.035351
Li	      6.32254      6.28149      8.19705        -0.078812      0.029895      0.042146
Ti	      4.21869      6.18964     10.20471         0.047310     -0.110885     -0.348062
Ti	      2.18042      4.14598      2.18527         0.071244      0.400448      0.252374
Mn	      6.32742      2.05577      4.09580         0.022045     -0.071608     -0.014773
Cr	      6.28695      4.21866      6.21403        -0.244443      0.087606     -0.073597
Fe	      2.10512      4.23549      6.15875         0.153216     -0.108004      0.071548
Cu	      4.13495      8.30042      8.13451         0.105669      0.010308      0.008153
Cu	      4.26102      6.20479      2.05945         0.086706     -0.057696     -0.247687
Cu	      8.41212      6.25187      6.19869         0.045908      0.113374     -0.072523
Cu	      4.20307      8.25510      4.06498        -0.092450      0.247817      0.083031
O	      2.12482      6.11251      6.15937        -0.013224      0.191711     -0.030710
O	      4.31350      8.26994      5.99304        -0.175472     -0.026400      0.195120
O	      2.05128      2.19275      2.00431        -0.159870     -0.188412      0.075513
O	      4.08583      3.97996      1.96876        -0.078449      0.092369     -0.023194
O	      4.35618      1.97813      4.19602        -0.072018      0.023328     -0.170653
O	      6.39680      4.04013      4.18941         0.050440      0.230963      0.072635
O	      6.28922      2.18381      6.12503        -0.083740     -0.126437      0.212963
O	      8.29981      4.24858      6.16598         0.034299     -0.256187      0.000869
O	      2.23003      4.16684      4.05827         0.052799     -0.035847     -0.338897
O	      4.23490      6.30096      3.97614         0.124048     -0.066430      0.117074
O	      4.23378      4.07929      6.21562         0.067274      0.168713     -0.030327
O	      6.38932      6.24448      6.15233         0.028100      0.053192     -0.001559
O	      6.47645      4.28570      8.23911         0.134765     -0.017748     -0.136436
O	      8.62508      6.11079      8.19651         0.001958     -0.171151      0.153801
O	      4.13376      6.33721      8.36375         0.018355     -0.079534      0.277099
O	      6.25399      8.30514      8.28734        -0.108300     -0.016518     -0.132536
O	      6.15768      6.33325     10.32420        -0.083761     -0.163649     -0.012358
O	      8.23302      8.41456     10.27408         0.096759      0.084071      0.019512
