# total energy = -220.19979257 eV
 
CRYSTAL
PRIMVEC
-0.013003 6.304790 6.244830 
6.248993 -0.000475 6.232167 
4.157773 4.186528 0.007993 
PRIMCOORD
36 1
Li	      8.31069      2.20706      6.20945        -0.008617      0.023666     -0.003851
Li	      8.29211      4.19381      4.30703        -0.001307      0.004190      0.087579
Li	      6.25930      2.11251      8.29612         0.030154     -0.013609     -0.029718
Li	      2.12915      2.08967      4.12626        -0.001842     -0.017173      0.006582
Li	      4.15230      4.15942      4.15260         0.014905      0.026133      0.021366
Li	      8.35150      6.15507      6.18148         0.002290     -0.058163      0.005513
Li	      6.35265      4.19416      6.26149         0.023924     -0.002590      0.046544
Li	     10.31602      8.35006     10.42264        -0.053788     -0.013685     -0.009354
Li	      8.37120      6.34102     10.35695         0.006625      0.001417     -0.015814
Ti	      6.23779      2.15251      4.32016         0.001187      0.023627      0.281705
Ti	      6.34223      6.18871      8.38105         0.132668     -0.334360      0.180820
Mn	      2.05593      0.06183      2.09459         0.046391      0.038010      0.033809
Cr	      4.13451      6.30529      6.12059         0.042437     -0.043522     -0.153634
Fe	      2.08944      4.18644      6.02553         0.027565     -0.049509     -0.005082
Ni	     10.34430      4.18100      6.20707         0.050048     -0.002307     -0.141032
Ni	      4.13690      2.10696      2.13469         0.028135     -0.083618     -0.011869
Ni	      2.09023      4.14068      2.11057         0.134438     -0.082566      0.237609
Ni	      8.32749      8.38124      8.36011         0.077429     -0.028980     -0.064100
O	      2.09964      1.97037      2.10368        -0.148619     -0.190783     -0.031152
O	      4.28819      4.17506      2.01828         0.020957      0.119323      0.170177
O	      4.30971      2.08775      4.14386         0.057998      0.007580      0.114624
O	      6.24716      4.11413      4.00426        -0.007969     -0.070079     -0.038320
O	      6.23656      2.10181      6.15121         0.012654      0.066745     -0.230480
O	      8.37878      4.15992      6.39521        -0.119016      0.002776     -0.365738
O	      2.09734      4.18826      4.14259         0.012175      0.004716      0.104119
O	      4.13644      6.31139      4.34656        -0.005834      0.016151      0.088126
O	      4.09055      4.38552      6.30260         0.012333      0.085695     -0.122969
O	      6.12686      6.36394      6.35808         0.020391     -0.000452      0.044395
O	      6.23488      4.31386      8.34599        -0.088686      0.466257      0.009985
O	      8.18528      6.30456      8.29991        -0.224234     -0.053566      0.003076
O	      2.09364      6.23881      6.35312         0.011939      0.021691     -0.022224
O	      4.21691      8.29325      6.27903        -0.038770     -0.063546     -0.083029
O	      4.08656      6.30853      8.19939         0.031660      0.057814     -0.022790
O	      6.22626      8.41600      8.30697        -0.024325      0.071773     -0.040782
O	      6.19462      6.38689     10.29361         0.004066      0.058548     -0.245620
O	      8.16046      8.38559     10.35091        -0.079363      0.012397      0.201529
