# total energy = -233.77257396 eV
 
CRYSTAL
PRIMVEC
-0.051237 6.276570 6.262709 
6.430261 -0.025460 6.237032 
4.283732 4.164368 -0.014023 
PRIMCOORD
36 1
Li	      6.26984      0.13684      6.22403        -0.002839     -0.092157     -0.016660
Li	      8.39358      2.17691      6.23438         0.039782     -0.025509     -0.035394
Li	      4.26515      2.07567      2.08430         0.012702     -0.035043      0.022241
Li	      8.56897      4.17377      4.36880         0.003807     -0.011291     -0.021856
Li	      6.42272      2.09095      8.07906         0.025158     -0.011209      0.041728
Li	      8.71702      6.08710      6.27019        -0.004451      0.004991     -0.008229
Li	      6.56429      4.04290      6.30135         0.021646      0.058783     -0.013562
Li	      4.28591      4.17916      8.28012        -0.040775      0.020721      0.006070
Li	      6.42933      6.16690      8.25491         0.027013      0.004061     -0.015501
Ti	      4.33838      4.03829      4.17880         0.077841     -0.473968      0.053446
Ti	      8.46746      6.37242     10.32688        -0.112858      0.410121     -0.101465
Mn	      2.13085      0.05663      2.05283         0.033854     -0.014647     -0.023391
V	      6.43049      4.16265     10.32181        -0.120479     -0.012479      0.076969
V	      4.28325      6.30511      6.32345        -0.079673      0.005140      0.004008
Cr	      8.57641      4.09931      8.22437         0.025237     -0.037802     -0.071110
Co	      6.39944      8.29671      6.37969         0.009893     -0.033849      0.008916
Cu	      6.40862      2.05988      4.20237         0.011899     -0.055645     -0.194179
Ni	      6.39799      6.23014      4.19427         0.005081     -0.020397      0.051329
O	      2.13332      2.04543      2.15080        -0.009163     -0.045212     -0.115205
O	      4.26056      4.17972      2.21903        -0.007252      0.042041     -0.011797
O	      4.14543      2.19912      4.23441         0.029193      0.324910      0.014046
O	      6.22765      4.18996      4.19251        -0.145269      0.080787      0.036402
O	      6.42245      2.05611      6.08743         0.009457     -0.001850      0.178829
O	      8.59371      4.12574      6.31410        -0.010089     -0.003415      0.032668
O	      2.17229      4.21390      4.12745         0.035104      0.083138     -0.032570
O	      4.19636      6.26333      4.23062        -0.071085     -0.112545     -0.055126
O	      4.19499      4.35542      6.14202        -0.039952     -0.054795     -0.055660
O	      6.22739      6.26383      6.24828         0.046694      0.037296      0.098722
O	      6.56898      4.10395      8.41191         0.038186     -0.019783     -0.199462
O	      8.57305      6.13426      8.44714         0.026106      0.015621      0.063574
O	      2.22949      6.22356      6.12033        -0.080823      0.013110      0.004074
O	      4.28206      8.16396      6.11649         0.009896      0.166629      0.103753
O	      4.10996      6.28736      8.18823        -0.049383      0.010046      0.137042
O	      6.35864      8.53777      8.42175        -0.011972      0.019386     -0.014741
O	      6.53656      6.16638     10.39683         0.202171     -0.000121      0.055604
O	      8.64965      8.22918     10.32196         0.095343     -0.235063     -0.003516
