# total energy = -232.96840298 eV
 
CRYSTAL
PRIMVEC
0.034216 6.660499 6.177687 
6.271606 0.042489 6.168248 
4.196903 4.450737 0.012185 
PRIMCOORD
36 1
Li	      4.15761      4.45486      0.11105         0.143403      0.112165     -0.074044
Li	      2.15689      2.23512      0.09110        -0.062649     -0.105575     -0.127417
Li	      4.06448      2.45973      2.04312         0.117095      0.136109      0.038531
Li	      0.11582      2.26205      2.03503        -0.014757      0.023909     -0.083330
Li	      2.06313      4.30958      2.05507         0.018419     -0.013677      0.178056
Li	      4.17010      4.48098      4.02570        -0.055119     -0.063846     -0.011721
Li	      6.29173      4.41279      6.33200        -0.093307     -0.213280     -0.003033
Li	      4.41094      4.43824      8.18184        -0.072465     -0.057215      0.063297
Li	      6.30526      6.37573      8.26418         0.056101      0.035143      0.212064
Ti	      8.40553      6.49291      6.23695         0.750639      0.461775      0.160342
Ti	      4.24353      6.61518      6.29326        -0.425122     -0.251580     -0.056491
Mn	      6.28443      8.86567      6.25388         0.118630      0.303124      0.093159
V	      6.29725      8.94316     10.24132         0.249904     -0.841734     -0.134656
V	      8.44808      6.70171     10.15217        -0.973934     -0.037853      0.036582
Cr	      6.20989      4.56580      2.09589        -0.337270     -0.559189     -0.101581
Co	     10.44158      8.88946     10.24314         0.066130     -0.010586     -0.127207
Cu	      4.27681      6.68763     10.23249         0.093281     -0.159324     -0.091669
Cu	      2.10159      2.18399      4.04689         0.041949      0.111432     -0.110471
O	      2.11291      2.08902      2.12886         0.059702     -0.018617      0.225381
O	      4.29130      4.48607      2.04138         0.093797      0.033275      0.041697
O	      4.26304      2.43389      4.25735        -0.677574     -0.089370      0.436389
O	      6.42677      4.19688      4.07987         0.357035      1.080687     -0.070474
O	      6.14078      2.30620      6.01558        -0.513459     -0.080505      0.382766
O	      8.40789      4.68298      6.12071        -0.140360     -0.095597     -0.039912
O	      2.01918      4.80695      4.12321        -0.102301      0.432510     -0.050700
O	      4.07477      6.68798      4.20562         0.631423     -0.063931      0.102670
O	      4.19565      4.65009      6.18310        -0.147201      0.403795     -0.004409
O	      6.31589      6.70031      6.09914        -0.051886      0.000758     -0.138149
O	      6.32341      4.44941      8.30683        -0.011795      0.011010      0.273058
O	      8.35856      6.76450      8.19444         0.099672     -0.104051     -0.758230
O	      2.22066      6.67844      6.15691         0.451395     -0.091417      0.300371
O	      4.22011      8.66383      6.10341         0.087065     -0.170129     -0.068830
O	      4.20382      6.65655      8.16471        -0.047084      0.064474      0.008180
O	      6.23700      9.08418      8.40539         0.008188      0.177701     -0.469439
O	      6.33483      6.92199     10.25728        -0.308771     -0.091648     -0.032971
O	      8.25043      8.65558     10.32744         0.591230     -0.268742      0.002193
