# total energy = -232.84549809 eV
 
CRYSTAL
PRIMVEC
-0.007583 6.376885 6.258270 
6.271906 -0.011753 6.262255 
4.163517 4.235986 0.010190 
PRIMCOORD
36 1
Li	      8.34403      8.47368     12.27115         0.043689     -0.051264      0.057941
Li	      8.49883     10.32695     10.39012         0.016624     -0.027912      0.039489
Li	      6.46205      8.33721     10.40876         0.014487     -0.047070      0.031097
Li	      2.07722      2.18421      4.16658        -0.001930      0.058950     -0.006424
Li	      6.07135      4.40296     10.36291         0.027691     -0.017774      0.006945
Li	      8.21635      6.53393     10.35707        -0.034762     -0.003860     -0.006315
Li	      2.05153      4.28243      6.21793        -0.082235      0.066747     -0.068418
Li	      8.35234      8.46405      8.58037         0.047754     -0.058583     -0.118157
Li	      6.28301      6.32698      8.58224         0.028166     -0.023425     -0.051559
Ti	      6.28329      4.22019      6.22039         0.200169     -0.107108     -0.046717
Ti	      4.07037      6.43728      6.20065        -0.457139      0.322059     -0.002994
Mn	      4.12116      4.26065      4.19197        -0.084208     -0.009515     -0.105443
V	      4.24189      8.41701      8.40043        -0.001124      0.036155     -0.076176
V	      8.28242      6.38048      6.26583         0.027601     -0.075299      0.033165
Cr	      2.06994      4.23349      2.10951         0.137246     -0.025026     -0.011154
Co	      6.35040      6.38408     12.35194        -0.112407     -0.255184      0.232461
Ni	      6.26966      4.25516      2.16924        -0.028694      0.030357      0.017292
Ni	      4.16900      6.38417      2.14137         0.035282     -0.057316      0.033741
O	      8.34502      8.46142     10.41802        -0.000585     -0.012894     -0.077056
O	      2.20520      2.15695      2.10529         0.063260      0.113847      0.010550
O	      4.14851      4.20488      1.97056        -0.051854     -0.020020     -0.205108
O	      4.12863      2.27917      4.18992        -0.029893      0.098519     -0.024337
O	      6.12416      4.26150      4.27731        -0.070070      0.041544      0.220803
O	      6.16015      2.21855      6.30376         0.004750      0.109281     -0.160490
O	      8.23938      4.28918      6.29825        -0.065304      0.012736     -0.066543
O	      2.22834      4.24886      4.07344         0.045690     -0.018976      0.045198
O	      4.18724      6.26781      4.28364         0.036251     -0.039217      0.221859
O	      4.25190      4.29143      6.37744         0.092513      0.102547      0.009409
O	      6.23914      6.23379      6.29322        -0.135874     -0.072570      0.001634
O	      6.36545      4.15457      8.24887        -0.025054      0.135125     -0.098692
O	      8.38339      6.22544      8.23077        -0.077240     -0.047808      0.019359
O	      2.20495      6.32711      6.35141         0.276200      0.048346     -0.198306
O	      4.20305      8.33346      6.36799         0.006799     -0.192386      0.029542
O	      4.13520      6.49293      8.29600         0.149988     -0.002295     -0.038516
O	      6.01799      8.57906      8.38649        -0.062296     -0.093255      0.016111
O	      6.25708      6.34910     10.47592         0.066510      0.082546      0.335809
