# total energy = -236.91225226 eV
 
CRYSTAL
PRIMVEC
0.046870 6.416928 6.192166 
6.331045 0.045845 6.192787 
4.234417 4.291788 0.017293 
PRIMCOORD
36 1
Li	      2.08848      0.14600      2.15955        -0.083423      0.043979     -0.043023
Li	      4.09397      2.23411      2.18625        -0.038042      0.068539      0.045212
Li	      8.29070      4.34848      4.12858        -0.003533     -0.001625     -0.004218
Li	      2.17652      4.18699      2.12844        -0.028448     -0.024882      0.000574
Li	      6.33427      6.26788      4.02947        -0.090912     -0.022235      0.004307
Li	      4.36086      4.32964      4.03486         0.043920     -0.011228     -0.029696
Li	      6.33334      4.31440      6.05941        -0.040834     -0.020851      0.024192
Li	      4.29280      6.42480      6.15048         0.030990     -0.034006     -0.017714
Li	      4.27518      4.30599      8.25420         0.039082      0.000960     -0.051528
Ti	      8.44785      6.39197      6.15108         0.096610     -0.048770     -0.095492
Ti	      2.25264      4.36778      6.17720         0.327648      0.059896      0.001229
Mn	      4.24616      8.51570      4.16088         0.126573      0.183553     -0.251948
V	      4.21172      4.27298      0.09374        -0.066728      0.372590      0.184508
V	      6.23864      6.43292      8.28655         0.335626      0.014781      0.260938
Cr	      6.35025      2.28149      4.08889        -0.150210     -0.037869      0.027041
Co	      0.10612      2.11781      2.12168         0.012972     -0.160016     -0.246536
Co	      2.24494      6.41324      4.07470        -0.268232     -0.057101      0.007069
Cu	      2.13781      2.15410      0.07012        -0.109967     -0.030965      0.238331
O	      2.06751      2.17495      1.98116         0.313899      0.030454     -0.105651
O	      4.20024      4.34501      1.98917         0.014637     -0.007780     -0.164161
O	      4.30685      2.18479      4.23237         0.003015     -0.023000      0.085604
O	      6.36008      4.21203      4.10728         0.053734     -0.091271     -0.026279
O	      6.21964      2.17166      6.13956        -0.017948      0.042045     -0.036146
O	      8.53761      4.47688      6.17031        -0.014299      0.088440      0.021263
O	      2.07623      4.30801      4.27057        -0.005555      0.133813      0.122706
O	      4.23385      6.47227      4.15865         0.055884      0.113235      0.175294
O	      4.12151      4.20135      6.20418        -0.286340      0.007556      0.002338
O	      6.46726      6.52624      6.27398        -0.025203     -0.012718      0.008962
O	      6.35507      4.41906      8.41864        -0.034412     -0.078581      0.153219
O	      8.37149      6.47040      8.16350        -0.030601      0.038002      0.044527
O	      2.08318      6.26988      6.28353         0.131243     -0.234309     -0.124434
O	      4.35513      8.61381      6.09747        -0.034593     -0.199657      0.169300
O	      4.50677      6.42750      8.22623        -0.416122     -0.005584     -0.029706
O	      6.38488      8.44196      8.24950         0.027563      0.140641     -0.146096
O	      6.43027      6.54160     10.30580         0.047838     -0.127427     -0.091655
O	      8.44559      8.57597     10.46620         0.084166     -0.108608     -0.112334
