# total energy = -236.00567132 eV
 
CRYSTAL
PRIMVEC
0.058547 6.214298 6.345501 
6.321104 0.041879 6.362048 
4.234107 4.173256 0.008255 
PRIMCOORD
36 1
Li	      0.25508      6.22026      6.19777        -0.034478     -0.014530     -0.055310
Li	      2.17869      8.12267      6.24877         0.073368      0.004091     -0.055188
Li	      2.13081      6.25178      8.26734        -0.018680      0.048622     -0.044001
Li	      8.50461     10.33555     10.63791         0.002206      0.013301      0.039876
Li	      6.50455      8.29904     10.61486        -0.003832      0.044928      0.023513
Li	      4.29032      6.23653      2.21461         0.000963     -0.005194     -0.009868
Li	      4.28093      4.26600      4.24712        -0.000570     -0.012549      0.013326
Li	      2.13622      6.31975      4.42464         0.071121     -0.017139     -0.006913
Li	      4.08395      6.25083      6.24032         0.009562      0.010924     -0.018408
Ti	      4.30859      8.24626      8.40049        -0.089725     -0.091826     -0.114316
Ti	      2.26520      4.19099      2.10430         0.187019      0.009094     -0.046404
Mn	      6.29819      6.24978      4.26405         0.085896     -0.029575      0.041972
V	      6.30412      4.07292      6.32990        -0.085920      0.076982      0.022414
V	      6.34805      6.24475      8.60193         0.013617     -0.056357     -0.084745
Cr	      8.46027      8.35261      8.56373         0.014079     -0.013373     -0.281128
Co	      4.26198      2.07801      6.19917         0.013261     -0.007858      0.019299
Co	      4.23105      8.30800      4.29581        -0.051168      0.011579      0.007599
Ni	      2.16993      4.25278      6.32042         0.078065     -0.135632     -0.046511
O	      2.26940      2.20629      2.06062         0.109674      0.106683      0.037732
O	      4.10585      4.12847      2.12254        -0.265992     -0.064640      0.024197
O	      4.08618      2.10957      4.13613        -0.063834      0.023169     -0.064572
O	      6.30715      4.30684      4.41465         0.001151      0.004871     -0.048166
O	      6.33696      2.28036      6.34528        -0.025865     -0.103652     -0.057798
O	      8.30708      4.22517      6.53149         0.072199      0.003606      0.080890
O	      2.05068      4.09187      4.12661         0.076341     -0.008584     -0.169478
O	      4.40009      6.32216      4.22403        -0.036899     -0.070587     -0.027205
O	      4.28735      4.15565      6.46018         0.048977     -0.017392      0.070178
O	      6.39999      6.18023      6.50198         0.017830      0.010497     -0.010949
O	      6.28420      4.17910      8.37039         0.059324     -0.021808      0.034234
O	      8.40548      6.25126      8.47289         0.044605     -0.075357      0.028631
O	      2.16122      6.19664      6.34710        -0.013260      0.177538     -0.003929
O	      4.36398      8.30988      6.54393        -0.138175      0.006893      0.329206
O	      4.33513      6.25112      8.48881        -0.064701      0.146902      0.044542
O	      6.37911      8.32899      8.51613        -0.082141      0.019659      0.145903
O	      6.33416      6.17020     10.51704         0.048241      0.054833      0.057754
O	      8.55051      8.34141     10.48603        -0.052256     -0.028120      0.123625
