# total energy = -239.29486609 eV
 
CRYSTAL
PRIMVEC
-0.003017 6.444065 6.260120 
6.065390 0.022995 6.234830 
4.067420 4.302358 -0.008223 
PRIMCOORD
36 1
Li	      4.05582      2.19762      2.11070         0.005854      0.025049     -0.004447
Li	      8.06696      4.28813      4.16143        -0.025807      0.002431     -0.051346
Li	      6.09853      2.22686      4.18820        -0.038044     -0.012242     -0.041325
Li	      4.02936      6.38979      2.06875        -0.030192     -0.021093      0.048055
Li	      4.04983      4.29507      4.05922         0.028561      0.001508     -0.038336
Li	      4.07428      2.14293      6.21862         0.035837      0.010897     -0.026580
Li	      4.01420      8.52172      4.17902         0.004766     -0.025161     -0.045468
Li	      4.04569      6.44305      6.23446         0.018897     -0.031543      0.009502
Li	      8.14270      8.56549      8.44457        -0.005625     -0.020869      0.062485
Ti	      2.11991      4.25068      6.22503         0.193217      0.033441      0.065055
Ti	      5.99155      6.47203      8.51315        -0.165817     -0.041347      0.202090
Mn	      2.07387      8.59584      6.23371        -0.012838      0.080530     -0.044006
V	      2.01786      2.14512      4.08075        -0.033553     -0.104704     -0.055545
V	      6.02975      4.31969      6.21049        -0.020960      0.007116      0.021833
Cr	      6.03937      0.05826      6.20997        -0.099819      0.007216      0.037224
Co	      6.13535     10.71775      8.39393         0.063774     -0.118234     -0.019919
Co	      2.07591      4.33115      2.09769        -0.036712      0.133477      0.063318
Co	      2.13536      6.48880      4.15488         0.026328      0.012600     -0.048291
O	      2.02375      2.19037      2.03800         0.038417     -0.172548      0.038669
O	      4.10700      4.31270      1.94503         0.105886      0.034384     -0.127258
O	      3.81485      2.17631      4.14545         0.058769      0.006858      0.006082
O	      6.04029      4.40693      4.20269         0.048802      0.053246      0.107236
O	      6.16174      2.16315      6.21978        -0.001430     -0.041115     -0.002957
O	      8.07807      4.37612      6.19084         0.075882      0.001457      0.162737
O	      1.99944      4.20706      4.27150         0.074445      0.035694      0.085040
O	      4.19405      6.45532      4.12813        -0.093055      0.005467      0.065927
O	      4.00745      4.29033      6.23939        -0.294166     -0.023866      0.000091
O	      6.03981      6.53290      6.22571         0.068089      0.103500      0.040841
O	      6.07551      4.50325      8.21456        -0.097393      0.065812     -0.032833
O	      8.02412      6.41962      8.42298        -0.118650      0.117106     -0.061000
O	      1.99856      6.29751      6.21404         0.027237     -0.146924      0.025870
O	      4.07924      8.75795      6.24740         0.016391     -0.045131     -0.043196
O	      4.10523      6.42629      8.36424         0.202083      0.096160     -0.039137
O	      6.09343      8.45660      8.20960        -0.011229      0.075299     -0.158554
O	      6.08007      6.50084     10.39041         0.034094      0.015456     -0.203204
O	      8.12331      8.58741     10.57288        -0.042039     -0.119927      0.001348
