# total energy = -231.05723712 eV
 
CRYSTAL
PRIMVEC
0.000388 6.254895 6.325568 
6.298660 -0.006042 6.331951 
4.187129 4.161947 0.008121 
PRIMCOORD
36 1
Li	      2.25967      8.29334      6.36708        -0.073438     -0.001244      0.008115
Li	      2.05849      0.03869      2.03295         0.026384      0.031219     -0.055003
Li	      4.12486      2.15922      1.99506         0.010311      0.034410      0.037105
Li	      2.12160      4.09968      2.14993        -0.003934      0.019246      0.032921
Li	      4.17186      4.12774      4.26194        -0.057225      0.061655      0.030538
Li	      6.32548      4.10963      6.26868         0.040156     -0.003325      0.004492
Li	      4.23566      8.28634      4.44916        -0.024079     -0.020154     -0.033053
Li	      6.09987      8.38082      6.32356         0.066676      0.006970      0.033789
Li	      4.08304      6.47822      6.30499        -0.030304     -0.012153      0.058981
Ti	      4.17132      4.15809      8.33665        -0.131889     -0.052240     -0.359839
Ti	      6.30022      6.17221      8.30820         0.012122      0.059256     -0.277696
Mn	      8.39726      4.14670      4.28713        -0.029745      0.035758     -0.034783
V	      4.25831      6.12385      2.10474        -0.009469     -0.099157      0.031118
V	      2.11648      6.15598      4.37638         0.077902     -0.036699     -0.073086
Cr	      2.12942      2.15257      4.21852        -0.001846     -0.007417      0.091971
Cu	      4.24160      2.08135      6.24502        -0.121025      0.050799      0.021220
Ni	      4.21221     10.33811      6.34203         0.017948      0.038624      0.027020
Ni	      6.24378      2.13844      4.24336        -0.030344      0.075254      0.019918
O	      1.94171      2.13363      2.22773         0.053758      0.043950     -0.046004
O	      4.16750      4.35076      2.07631        -0.024426      0.106627      0.101236
O	      4.14771      2.15274      4.05503        -0.065606     -0.018481     -0.094608
O	      6.44436      4.23986      4.22511         0.035367      0.042819     -0.044559
O	      6.25061      2.08590      6.42592         0.108297      0.020690      0.060397
O	      8.45250      4.26945      6.20411        -0.097282     -0.037233     -0.030360
O	      2.09837      4.17061      4.24315         0.008841     -0.071834     -0.040183
O	      4.23288      6.24931      4.08673         0.077279     -0.025413      0.081005
O	      4.20463      4.06832      6.50170         0.031866      0.068676      0.273017
O	      6.34056      6.22693      6.42352        -0.114912     -0.026101      0.161253
O	      6.20639      4.18327      8.41856        -0.059876      0.067745      0.002704
O	      8.37539      6.27563      8.61109        -0.029125      0.039946      0.144350
O	      2.08009      6.25559      6.27942         0.074939      0.054673      0.078693
O	      4.16414      8.37230      6.39435        -0.035405     -0.156099      0.024030
O	      4.34176      6.11148      8.50904         0.082297     -0.139747     -0.008160
O	      6.40261      8.16110      8.47531         0.135904     -0.101512     -0.138685
O	      6.23664      6.27467     10.44548        -0.024655     -0.064007     -0.047331
O	      8.30939      8.21607     10.44622         0.104538      0.014500     -0.040523
