# total energy = -232.02395331 eV
 
CRYSTAL
PRIMVEC
0.026847 6.362103 6.307018 
6.269594 0.052105 6.282312 
4.184473 4.229725 0.029651 
PRIMCOORD
36 1
Li	      4.19505      2.15892      2.18778        -0.034790      0.020245     -0.021502
Li	      6.15146      2.12758      4.15549         0.012424      0.002978     -0.014374
Li	      4.18608      6.37764      2.20629        -0.001616     -0.006741      0.031180
Li	      4.14704      4.15644      4.16726         0.076702      0.061436     -0.029163
Li	      4.14632      2.23746      6.22888         0.034393     -0.003142      0.005223
Li	      6.27079      4.27035      6.38290         0.023335      0.038042      0.025534
Li	      0.12746      4.26103      4.13768        -0.035828     -0.034722      0.005733
Li	      2.06422      6.23279      4.15946         0.018756      0.005806      0.017927
Li	      6.32040      6.37782      8.50175         0.039602     -0.025336     -0.006012
Ti	      8.21843      2.17525      6.22504        -0.236893      0.084191      0.166265
Ti	      4.39557      6.38934      6.21755         0.428704     -0.123848     -0.307785
Mn	      6.22384      4.23518      2.13553        -0.065536      0.042358      0.072640
V	     10.43505     10.59292     12.60707        -0.026085      0.039614      0.027127
V	      8.51352      8.41656      8.49372         0.020229      0.076917      0.015678
Cr	      4.18446      0.08694      4.14528        -0.017112     -0.021786     -0.005471
Cu	      2.05705      4.30104      2.24343        -0.110188     -0.042484     -0.036779
Cu	      2.16988      2.17409      4.15525        -0.156756     -0.037836      0.045741
Ni	      2.15885      4.26710      6.28303        -0.007732      0.017047      0.016013
O	      2.05366      1.94038      1.85669         0.007316     -0.071046     -0.269643
O	      4.05593      4.23530      1.98066         0.086352     -0.062621      0.082592
O	      4.12718      2.05125      4.19408         0.128306      0.026967     -0.040364
O	      6.34216      4.35061      4.06477        -0.066352     -0.079694      0.006697
O	      6.35135      2.05297      6.23018         0.173007      0.019166     -0.009430
O	      8.32362      4.12597      6.23187        -0.049602     -0.106213     -0.086020
O	      2.14882      4.17246      4.22835         0.016184      0.067762      0.006812
O	      4.28330      6.32988      4.37998        -0.085938      0.058010      0.333146
O	      4.23053      4.43525      6.45020         0.071097      0.072629     -0.106409
O	      6.21652      6.46760      6.46253        -0.284559     -0.095280      0.132877
O	      6.25512      4.27314      8.41079         0.045731      0.032664     -0.005455
O	      8.34433      6.65801      8.45357         0.017343     -0.073417     -0.038254
O	      2.12530      6.40215      6.33770         0.081694      0.106805     -0.051045
O	      4.14854      8.42968      6.33731        -0.054132     -0.002796     -0.009107
O	      4.25062      6.27296      8.43001        -0.029334      0.085368     -0.048227
O	      6.40613      8.67560      8.38693        -0.029699     -0.079894      0.106788
O	      6.20314      6.39769     10.63484         0.049025     -0.008393     -0.113639
O	      8.40922      8.59031     10.52664        -0.038047      0.017246      0.100704
