# total energy = -99.41724438 eV
 
CRYSTAL
PRIMVEC
0.000204 2.052018 2.052340 
9.236070 -4.354505 4.357390 
2.170954 4.151537 -2.099247 
PRIMCOORD
16 1
Li	      0.46342      1.89423      2.20861        -0.018324     -0.033692      0.036577
Li	      2.63968      1.88220      0.17351         0.028531      0.005374     -0.001903
Li	      2.46168     -0.04688      2.10060         0.001281      0.008628     -0.008989
Li	      4.25259      1.99096      2.11532        -0.016397      0.009001     -0.009110
Ti	      9.00167      1.92830      2.17938        -0.135053     -0.010577      0.005591
Ti	      9.33654     -0.17127      4.27578         0.898583     -0.053657      0.061186
Ni	      6.48485      2.08173     -0.02696         0.074872     -0.085261      0.087522
Ni	      6.62756     -0.08948      2.14457         0.063646      0.012291     -0.013931
O	      7.09979      1.90414      2.20273         0.264423      0.058207     -0.057160
O	      6.93833     -0.18502      4.29170         0.028715     -0.105788      0.102601
O	      9.04091     -0.15136      2.20542         0.003859     -0.010618      0.005679
O	      8.87866     -2.11386      4.16692        -0.055842      0.098587     -0.096603
O	      1.84780      4.19888     -0.09593        -0.860496      0.015038     -0.017948
O	      2.27464      2.01420      2.09318         0.018487     -0.010824      0.008988
O	      4.58440      1.98333      0.07098        -0.203155     -0.014222      0.015705
O	      4.70257     -0.15146      2.20618        -0.093129      0.117515     -0.118205
