# total energy = -231.69178844 eV
 
CRYSTAL
PRIMVEC
-0.042751 6.260299 6.151400 
6.502641 -0.027536 6.136334 
4.327516 4.155187 -0.010169 
PRIMCOORD
36 1
Li	      6.54833      0.03437      6.12261         0.097165     -0.025331      0.037384
Li	      4.39798      6.21519     10.22870         0.033406      0.010512     -0.061477
Li	     10.59729      6.16572      8.27172        -0.025346     -0.054707     -0.055400
Li	      6.29811      6.37543      4.11663        -0.052331      0.011557     -0.008860
Li	      4.25207      4.23763      4.12352        -0.054686      0.018079     -0.023863
Li	      8.67052      6.19224     10.14673        -0.011022     -0.026983      0.067820
Li	      2.29606      4.12295      6.06023         0.053896     -0.016873     -0.001500
Li	      8.63680      8.16324      8.09507        -0.037282      0.002864     -0.005514
Li	      6.58664      6.22039      8.13946        -0.072097     -0.001396     -0.010442
Ti	      2.16124      8.35971      6.13902         0.097031     -0.151329     -0.119816
Ti	      4.41457      2.10837      2.13092         0.011977      0.082684      0.087131
Mn	      6.55116      4.21646     10.19317        -0.137378      0.033794     -0.025653
V	      6.51967      4.17131      2.13854         0.009698      0.181465     -0.134653
V	      6.35464      4.15325      6.20389        -0.026148      0.393260     -0.042456
Cr	      6.54307      8.20606     10.22192         0.006295     -0.190346      0.276728
Cu	      8.65952      4.21512      8.24709         0.041879     -0.056998      0.023529
Cu	      8.59069      6.15617      6.10974        -0.008982      0.062665     -0.107900
Cu	      4.28708      6.23838      6.08073         0.034111     -0.043251     -0.028433
O	      8.60897      6.13539      8.06477        -0.006591      0.052154      0.064126
O	      2.35072      2.13741      2.07255         0.075800     -0.050144     -0.057168
O	      4.52736      4.08818      2.13445         0.114443     -0.192524     -0.043865
O	      4.53672      1.98535      4.05556        -0.023294      0.017508     -0.301097
O	      6.57426      3.98228      4.15028        -0.021224     -0.121338     -0.061273
O	      6.71561      2.06370      6.08571         0.220130      0.079080     -0.066747
O	      8.47510      4.10746      6.21306         0.023496     -0.215341     -0.028276
O	      1.99661      4.21622      4.06741         0.083123     -0.014475      0.100891
O	      4.27755      6.46383      4.12343        -0.025184      0.037923     -0.017929
O	      4.40574      3.96155      6.05791        -0.016688      0.087779      0.021516
O	      6.26329      6.06638      6.06686        -0.001756     -0.398541      0.056740
O	      6.31488      4.08551      7.99911        -0.100570     -0.041189     -0.073288
O	      2.19241      6.40948      6.26758        -0.169554      0.263734      0.069844
O	      4.11216      8.53505      6.26425        -0.150681      0.050470      0.118484
O	      4.17174      6.38727      8.12492         0.051679      0.158977      0.088413
O	      6.36440      8.32704      8.19847        -0.076974      0.029194      0.128690
O	      6.44901      6.18777     10.20965         0.059488      0.030311     -0.022939
O	      8.64039      8.31378     10.33804         0.004169     -0.003244      0.157256
