# total energy = -237.48055215 eV
 
CRYSTAL
PRIMVEC
-0.009070 6.354715 6.362042 
6.127771 -0.001330 6.354323 
4.088411 4.234782 -0.004416 
PRIMCOORD
36 1
Li	      8.15413      2.15011      6.39162        -0.037369      0.034439     -0.021911
Li	      6.10768     10.47537      8.46466        -0.026519      0.010738      0.044063
Li	      6.10288      8.48479     10.45106        -0.036406      0.035156      0.126572
Li	      2.06885      4.18822      2.07497         0.019575      0.032226     -0.052058
Li	      2.07067      2.13283      4.17379         0.047485     -0.018651      0.010980
Li	      6.16891      4.22675      6.37764         0.036272      0.009908      0.047051
Li	      6.10883      8.48480      6.53063         0.017352     -0.038934     -0.039373
Li	      7.99479      8.43238      8.51171         0.040423     -0.011857      0.023033
Li	      6.12873      6.53943      8.45247         0.028214     -0.110571     -0.010330
Ti	      6.12713      4.25946     10.48950        -0.146903      0.200265     -0.371662
Ti	      4.13312      6.34538      6.54122         0.490722     -0.130501      0.295739
Mn	      8.07694      6.35458      6.44918         0.061055     -0.056689      0.116047
V	      4.16825      4.19245      4.23027         0.233371     -0.147663     -0.016459
V	      8.18399      6.37961     10.54317        -0.027673      0.061666     -0.092313
Cr	      4.08668     10.53497      6.40621        -0.100469      0.145465     -0.038857
Fe	      0.18743      2.11930      2.03744        -0.222660      0.114895     -0.094453
Co	      8.06819      4.21711      4.20729        -0.016870     -0.023312      0.128785
Cu	      4.07502      2.09715      2.16870         0.054329     -0.155037     -0.041814
O	      2.09093      2.12502      2.11715         0.116173      0.009559      0.019994
O	      4.09958      4.32668      2.13847        -0.006914      0.007932     -0.053166
O	      4.02119      2.28005      4.28830         0.057990      0.054233      0.014824
O	      5.97806      4.25963      4.24137        -0.194561      0.009078     -0.034992
O	      6.14881      1.95832      6.44745         0.015098     -0.076610     -0.147456
O	      8.23454      4.21139      6.24969         0.080279     -0.065565     -0.067486
O	      2.11275      4.36049      4.20142        -0.069261     -0.036851     -0.000934
O	      4.12260      6.39305      4.24988         0.038384      0.001814      0.082145
O	      4.05482      4.37553      6.20570         0.023046      0.211430      0.023276
O	      5.98330      6.34084      6.40195        -0.624070      0.030507      0.057030
O	      6.18636      4.13487      8.62331        -0.029840      0.089696      0.431953
O	      8.25548      6.39348      8.57586         0.041719      0.055953      0.015781
O	      2.05533      6.35988      6.22319         0.093421     -0.055519      0.080901
O	      4.09977      8.40552      6.18320         0.004828     -0.019169     -0.145614
O	      4.02796      6.28538      8.40583         0.032153     -0.011267     -0.253988
O	      5.99567      8.46501      8.50384        -0.141794     -0.004518     -0.002838
O	      6.11888      6.22581     10.69869        -0.108626     -0.212360     -0.024904
O	      8.26240      8.42354     10.55163         0.258046      0.060116     -0.007566
