# total energy = -237.96753298 eV
 
CRYSTAL
PRIMVEC
0.019324 6.348920 6.309524 
6.308479 -0.006923 6.335868 
4.191957 4.236546 0.009102 
PRIMCOORD
36 1
Li	      6.33513      6.32488     12.46210        -0.017688      0.049672      0.006592
Li	      8.44328      8.42143     12.51310        -0.065463     -0.008302      0.067557
Li	      6.40649      8.38735     10.60691        -0.033293     -0.012024      0.074092
Li	      6.29478      2.15423      8.38119         0.048769     -0.025132     -0.058562
Li	      6.30365      6.35432      4.29913         0.046860     -0.037708     -0.073484
Li	      6.32024      4.21273      6.32204         0.048876     -0.059684     -0.001135
Li	     10.44110      8.55059     10.64657        -0.071517      0.046617     -0.067711
Li	      8.31771      6.39913     10.63735        -0.043258      0.052668      0.043861
Li	      4.21510      6.43715      6.27542         0.003687      0.002840      0.039180
Ti	      2.08306      0.11339      2.07284        -0.082800      0.808906     -0.026304
Ti	      4.33500      2.04097      6.21832         0.668311     -0.430452     -0.250513
Mn	      2.04384      4.14811      2.11680         0.113674     -0.185113     -0.129694
V	      4.23802      4.41920      4.24594         0.313798     -0.003772     -0.380088
V	      6.24679      8.45199      6.28946        -1.594496      0.022887      0.531557
Cr	      6.29632      6.35071      8.46621        -0.124363     -0.096995      0.187455
Fe	      8.47431      8.41762      8.61234        -0.002410      0.103730      0.081538
Co	      4.21933      8.45251      8.40910         0.465726     -0.153179     -0.579692
Ni	      8.43919     10.51910     10.59423        -0.083621      0.049737      0.005620
O	      2.10592      1.98621      2.07493        -0.252798     -0.454206      0.005565
O	      4.30760      4.19819      2.24622         0.120033      0.349385      0.170345
O	      4.19859      2.18648      4.27670        -0.061033      0.102355      0.562981
O	      6.25435      4.21585      4.09741        -0.194041      0.026499     -0.034291
O	      6.16243      2.12828      6.36466        -0.565555     -0.014373     -0.087192
O	      8.37713      4.36026      6.31624         0.020291      0.304279      0.066730
O	      2.26993      4.21721      4.22661        -0.153314      0.037340      0.698803
O	      4.23415      6.17200      4.23561        -0.000775     -0.131164      0.069976
O	      4.15258      4.14934      6.23580        -0.260367      0.042628      0.116276
O	      6.38095      6.43540      6.41394         0.014032      0.115778      0.011786
O	      6.21879      4.33122      8.41345         0.114039      0.087404     -0.019032
O	      8.32029      6.43437      8.32800        -0.047017     -0.093336     -0.047349
O	      2.12261      6.25848      6.47953         0.019556     -0.142031      0.023399
O	      4.29624      8.44433      6.37472         0.951714      0.085856     -0.473263
O	      4.18132      6.27609      8.48005         0.091295     -0.288681     -0.105634
O	      6.38100      8.45927      8.39703         0.472615     -0.052298     -0.409440
O	      6.27593      6.35382     10.43664         0.121698     -0.046400     -0.099535
O	      8.41412      8.45385     10.50967         0.018832     -0.053731      0.079605
