# total energy = -237.62177044 eV
 
CRYSTAL
PRIMVEC
0.011246 6.300810 6.153046 
6.353680 0.004245 6.160256 
4.235741 4.205150 0.002947 
PRIMCOORD
36 1
Li	      4.20697      2.08323      2.17226        -0.003452      0.001790      0.067453
Li	      8.39410     10.42011     10.18675        -0.061773     -0.015371     -0.014073
Li	      6.46064      8.48511     10.19397         0.010963      0.050326     -0.040137
Li	      4.26669      6.33148      2.21764         0.037186     -0.019480     -0.048885
Li	      6.27138      6.24774      3.98990        -0.016687     -0.040334     -0.030195
Li	      4.29596      4.27872      4.01725         0.027868     -0.011283     -0.064354
Li	     10.50191      8.30312     10.16667        -0.015917     -0.017112      0.007370
Li	      8.59048      6.40099     10.14981         0.016770     -0.009462     -0.013491
Li	      8.50186      8.40584      8.36303        -0.023918      0.036705      0.017883
Ti	      0.02574      6.26551      6.10844         0.185538     -0.167488     -0.030770
Ti	      2.08923      4.23165      6.07194         0.061585      0.044463     -0.490882
Mn	      8.47078      8.41406     12.26241         0.113015     -0.192993      0.091469
V	      4.27280      2.13094      6.06874         0.030448      0.050896     -0.438550
V	      4.24972      6.29778      6.07783         0.017030      0.048400      0.091655
Cr	      6.36169      4.20346      6.12410        -0.187614      0.216095     -0.104602
Fe	      6.31923      6.31432      8.38528        -0.076029      0.063061     -0.011366
Co	      6.37444      4.20728      2.19392        -0.117950      0.029114     -0.104734
Co	      2.13737      4.17067      2.17477         0.055805     -0.050841     -0.021247
O	      2.12770      2.11011      1.90457        -0.014861     -0.258347      0.188330
O	      4.23419      4.19590      1.89033         0.017211      0.010780     -0.091916
O	      4.20333      2.11631      4.31045         0.010402     -0.009127      0.383947
O	      6.34596      4.20166      4.18297        -0.002552      0.035477     -0.001376
O	      6.27136      2.14364      6.18168         0.100269     -0.175127      0.010564
O	      8.45866      4.26303      6.13856         0.138076     -0.138266     -0.050221
O	      2.15569      4.17774      4.24668         0.002559      0.030514      0.441441
O	      4.23248      6.29780      4.18914        -0.016206      0.001979      0.161203
O	      4.28554      4.19724      6.17587        -0.120438     -0.035425      0.013762
O	      6.38802      6.28960      6.19062         0.048656      0.094165      0.055566
O	      6.39396      4.30293      8.15974         0.052234     -0.090015     -0.037772
O	      8.36618      6.27358      8.05216         0.085791      0.002810      0.017244
O	      2.11294      6.26970      6.18102        -0.262593     -0.018237     -0.076751
O	      4.28425      8.39083      6.13541        -0.016743      0.257064     -0.003454
O	      4.31220      6.30938      8.12914        -0.085789     -0.009359     -0.101478
O	      6.37056      8.33837      8.09522         0.011267      0.250344      0.100757
O	      6.36865      6.32417     10.34638        -0.004923      0.021322      0.256818
O	      8.47422      8.39825     10.41530         0.004774      0.012961     -0.129209
