# total energy = -234.18038760 eV
 
CRYSTAL
PRIMVEC
0.015512 6.426977 6.111420 
6.274360 -0.011811 6.139346 
4.181418 4.302576 -0.006944 
PRIMCOORD
36 1
Li	      6.34959     10.46652      8.13423        -0.038632      0.015438     -0.028548
Li	      4.38595      8.52511      8.09168        -0.062028      0.026990     -0.025791
Li	      6.33584      8.61959     10.00662        -0.019450      0.009069      0.054075
Li	      6.34051      2.23315      8.14955        -0.019417     -0.057673      0.026198
Li	      8.29197      4.22707      8.15231         0.037003      0.019125      0.026873
Li	      8.33041      6.50692      6.23709         0.027868     -0.034433      0.021076
Li	      6.31779      8.54282      6.27372         0.001914     -0.010527      0.021518
Li	      8.17341      8.55218      8.06587         0.063229     -0.044224     -0.062516
Li	      6.29584      6.68630      8.04277        -0.007059     -0.028157     -0.045819
Ti	      4.15535      0.18906      3.97099        -0.021630      0.357942     -0.294102
Ti	      8.39271      6.36982     10.08942         0.087498      0.001829     -0.546734
Mn	      2.12248      2.13976      0.13381         0.053633      0.015505      0.011542
V	      4.19467      4.38082      0.17528        -0.093544     -0.007803      0.149503
V	      6.26779      4.30600     10.11509         0.036399      0.013230      0.052440
Cr	      6.25603      4.30986      6.21507        -0.108627     -0.356523     -0.132661
Fe	      4.18446      4.19351      4.03927         0.060805     -0.052005     -0.165902
Cu	      4.17592      6.33487      6.24189        -0.080750     -0.029894      0.086073
Ni	      2.07683      2.12602      4.01698        -0.152614      0.075781      0.008930
O	      2.11532      2.17187      2.01249         0.004602      0.082149     -0.107709
O	      4.17044      4.32369      1.94676         0.014855      0.035443     -0.008469
O	      4.14045      2.03846      4.06465         0.122963     -0.474512     -0.025389
O	      6.40826      4.29608      4.16553         0.214171     -0.059720     -0.011853
O	      6.42267      2.07307      6.17523        -0.027396      0.103735     -0.045189
O	      8.42327      4.36870      6.05864        -0.110927      0.018158     -0.027599
O	      2.01089      4.37310      4.05741         0.070598      0.145125      0.094609
O	      4.09486      6.49988      4.13335        -0.164446     -0.071569     -0.089070
O	      4.30300      4.15158      6.02374         0.142440     -0.049944      0.200471
O	      6.13190      6.28284      6.05510         0.125131      0.152058      0.101043
O	      6.26202      4.25577      8.18072        -0.010830     -0.038128      0.046764
O	      8.34996      6.44193      8.31027        -0.028897     -0.073016      0.444824
O	      2.02961      6.39432      6.04944         0.030172      0.079630      0.057034
O	      4.10425      8.80498      6.03158         0.006409      0.124005      0.131001
O	      4.21522      6.39532      8.26676        -0.020243      0.038830      0.285150
O	      6.28024      8.57662      8.14542         0.078753     -0.049960     -0.011721
O	      6.28438      6.40295     10.35130        -0.015283      0.087815     -0.155803
O	      8.45396      8.49828     10.34458        -0.196671      0.036233     -0.034245
