# total energy = -236.01540639 eV
 
CRYSTAL
PRIMVEC
0.019278 6.195278 6.474854 
6.285699 0.014287 6.480100 
4.171670 4.114666 0.028151 
PRIMCOORD
36 1
Li	      8.35405      2.14054      6.47994         0.022571      0.005480     -0.054305
Li	      4.28399      8.20353      8.71757         0.063038      0.031854      0.045828
Li	      4.15078      6.20074     10.69713        -0.036453      0.054932     -0.120538
Li	      6.33844      8.30577     10.68627        -0.010472     -0.021615     -0.081056
Li	      6.27763      2.10664      8.59395        -0.068170     -0.007297     -0.079539
Li	      6.29786      6.14231      4.34329         0.043823      0.008550      0.031106
Li	      8.36985      6.21562     10.71285        -0.010474      0.011855     -0.069895
Li	      8.26886      8.26846      8.68527        -0.027236      0.045295      0.035260
Li	      6.27526      6.30223      8.69051        -0.007855      0.002109      0.023558
Ti	      6.39305      6.28907     12.86057         0.106021     -0.009248     -0.058217
Ti	     10.30623      8.20979     10.78107        -0.526235      0.065465     -0.119650
Mn	      4.19343      4.13521      4.33664         0.012938     -0.019196      0.083143
V	      2.12525      4.02475      2.21752        -0.029695      0.115996     -0.061964
V	      8.29903      6.15615      6.49990        -0.043550      0.018274      0.189506
Cr	      6.26066      4.12920      2.19324         0.066531      0.096506     -0.021090
Fe	      4.30840      6.18083      6.60294        -0.263187      0.048955      0.035959
Cu	      6.29126      4.02710      6.42936        -0.006615      0.013012      0.003960
Cu	      6.28538      8.24551      6.59952        -0.134530      0.006507      0.092443
O	      2.10556      2.18891      2.17394        -0.027884     -0.246491     -0.053328
O	      4.18187      4.10961      2.03997         0.001737      0.032268      0.002858
O	      4.15911      2.16801      4.54836         0.019594      0.085081     -0.241256
O	      6.14788      4.14738      4.16087        -0.027908      0.033065      0.044141
O	      6.19670      1.99335      6.45578         0.109190      0.022812     -0.005908
O	      8.52786      4.10067      6.61741        -0.035762     -0.141849     -0.043835
O	      2.17074      4.14919      4.18651         0.184426     -0.017407     -0.211013
O	      4.16671      6.22560      4.53146         0.059061     -0.062884     -0.025072
O	      4.08262      4.14489      6.55061         0.389606      0.093475     -0.033784
O	      6.27751      6.04656      6.56059         0.096500     -0.236878     -0.028765
O	      6.43585      4.08567      8.87710        -0.154312      0.020558      0.189164
O	      8.39276      5.96835      8.52577        -0.017281      0.063814      0.059226
O	      2.03963      6.34890      6.58863        -0.062455      0.027978     -0.006389
O	      4.26993      8.27481      6.35059        -0.214504      0.022364     -0.146474
O	      4.10314      6.26233      8.53099         0.046169     -0.055589      0.079277
O	      6.26566      8.37016      8.63874        -0.001142     -0.046624      0.312924
O	      6.32853      6.10261     10.95828        -0.006894     -0.050593      0.134139
O	      8.49638      8.26154     10.75002         0.491411     -0.010529      0.099588
