# total energy = -236.05488143 eV
 
CRYSTAL
PRIMVEC
-0.002100 6.261050 6.339725 
6.331786 0.003398 6.334095 
4.222688 4.171953 0.000942 
PRIMCOORD
36 1
Li	      6.31385      6.25314     12.64335        -0.027190      0.005897     -0.037284
Li	      4.22541      2.09546      2.14782         0.028917      0.010110      0.028250
Li	      4.25828      0.11994      4.20888         0.053088      0.035666     -0.018221
Li	      6.38546      6.23125      4.34864        -0.001014     -0.020894      0.036973
Li	      8.34074      6.28408      6.27058        -0.052258      0.001981      0.023540
Li	      6.31290      4.28016      6.39976         0.019860      0.029948      0.033477
Li	      8.42822      6.26073     10.55881        -0.039032      0.014963     -0.020312
Li	      4.26532      4.17138      8.34750         0.002590     -0.018185     -0.108789
Li	      6.28170      6.23967      8.39621        -0.053146      0.012306      0.008969
Ti	      8.39809      2.14220      6.29009        -0.156729      0.218745     -0.168996
Ti	      2.26140      6.23647      8.49629         0.579554     -0.110305      0.147527
Mn	      6.28227      4.22643     10.49818        -0.144700      0.042302      0.089323
V	      6.29516      8.24481     10.55867         0.020618     -0.020159     -0.020932
V	      8.44508      4.29529      8.46450        -0.044153      0.010374     -0.270654
Cr	      6.29038      8.30721      6.34248         0.013206     -0.074439      0.051797
Fe	      4.22253      4.17198      4.26762         0.058417     -0.064139      0.104794
Ni	      0.02071      2.07559      2.11600        -0.121954      0.044382     -0.028771
Ni	      4.27111      6.24382      6.31585        -0.023595     -0.032717      0.025932
O	      2.11052      2.06243      2.02716         0.108111     -0.111044     -0.068780
O	      4.16928      4.18480      2.19388         0.090137     -0.145950     -0.031483
O	      4.32773      2.16696      4.24312        -0.010708     -0.038288      0.032887
O	      6.29075      4.13593      4.09560         0.050768     -0.009726     -0.129675
O	      6.48773      2.06484      6.32645         0.238121      0.008870     -0.007741
O	      8.48154      4.03399      6.49756        -0.001593     -0.186975     -0.022255
O	      2.16874      4.14086      4.19174        -0.050149      0.031157      0.002317
O	      4.20785      6.17149      4.20369        -0.032712      0.036684     -0.009840
O	      4.08852      4.20235      6.28069        -0.024188     -0.134874      0.035295
O	      6.28626      6.36892      6.36280         0.142413     -0.030224     -0.004191
O	      6.48723      4.11502      8.40164         0.057123      0.085919      0.023628
O	      8.48470      6.06229      8.42511        -0.035643      0.110508      0.022310
O	      2.10702      6.28600      6.47367        -0.106595      0.010108      0.032841
O	      4.18491      8.30178      6.34673        -0.016871      0.195541     -0.037959
O	      4.09104      6.25545      8.46219        -0.519960     -0.016893      0.037513
O	      6.32428      8.47175      8.37455        -0.000600      0.153859      0.049821
O	      6.31620      6.34335     10.52860         0.043045     -0.048434     -0.000243
O	      8.35936      8.35626     10.70610        -0.043178      0.003926      0.198929
