# total energy = -241.59489196 eV
 
CRYSTAL
PRIMVEC
0.030551 6.202258 6.402575 
6.313414 0.020040 6.413265 
4.214048 4.147047 0.008274 
PRIMCOORD
36 1
Li	      0.12257      6.14491      6.37861         0.044430      0.013734     -0.044249
Li	      2.20420      8.18140      6.32230        -0.006103      0.011192     -0.068970
Li	      2.16768      6.17257      8.50427         0.032180     -0.028971      0.069476
Li	      8.46782     10.29710     10.64525        -0.046148     -0.037877     -0.007015
Li	      4.19677      4.20051      4.26708         0.027115     -0.012071      0.039782
Li	      4.19880      8.29651      4.39194        -0.006943      0.030428      0.033593
Li	      2.12503      4.24940      6.36072         0.011908     -0.055223     -0.063750
Li	      4.11924      6.21734      6.45471         0.034402     -0.043328      0.034871
Li	      4.20091      4.23392      8.57045         0.002963      0.034159      0.020968
Ti	      4.21751      8.27209      8.35132         0.050481     -0.199985     -0.460816
Ti	      4.17428      2.13638      6.34579        -0.170069      0.067348     -0.066221
Mn	      2.14936      6.20795      4.34546        -0.016812      0.075379     -0.008124
V	      6.37049      8.30263     10.69196         0.113925      0.156554      0.005321
V	      6.30673      4.15616      6.41163         0.021387      0.143766     -0.061074
Cr	      4.25142      6.15484      2.15306         0.005130      0.059817     -0.042536
Fe	      2.17056      4.10210      2.16778        -0.085632     -0.005030     -0.093160
Fe	      6.32370      6.18209      8.57647        -0.001006     -0.043839     -0.066022
Co	      6.27298      6.24972      4.29936         0.002560     -0.043764      0.069352
O	      2.11090      2.00614      2.21840         0.013286     -0.066875     -0.023611
O	      4.27786      4.10810      2.13795         0.068672     -0.018738      0.014316
O	      4.27142      2.07958      4.41062        -0.096728      0.026052     -0.005989
O	      6.34752      4.10423      4.43447        -0.040587      0.097104     -0.051904
O	      6.22891      2.07888      6.46015        -0.047438     -0.068597      0.034429
O	      8.34231      4.28762      6.49082         0.025861      0.071297     -0.102720
O	      2.10638      4.23417      4.21893         0.014372      0.016452      0.117507
O	      4.13254      6.22510      4.13560        -0.001572     -0.002471      0.052617
O	      4.28826      4.04735      6.44356        -0.061744     -0.146031     -0.008830
O	      6.42551      6.24523      6.37238         0.142952      0.013168     -0.024195
O	      6.31671      4.09720      8.42708        -0.026667     -0.152878      0.033062
O	      8.53159      6.26019      8.52246         0.114051      0.059550      0.066516
O	      2.17280      6.19465      6.17453        -0.049867      0.000169     -0.127980
O	      4.20747      8.29549      6.54704         0.027538     -0.019112      0.518092
O	      4.21751      6.36813      8.56760        -0.122625      0.188397     -0.003958
O	      6.20212      8.27016      8.64093        -0.150107      0.103597      0.005257
O	      6.49613      6.28340     10.68319         0.080014     -0.177660      0.216836
O	      8.37261      8.17807     10.67399         0.096822     -0.045714     -0.000871
