# total energy = -239.93028015 eV
 
CRYSTAL
PRIMVEC
-0.004548 6.206246 6.430407 
6.349337 0.006518 6.419203 
4.244879 4.141908 -0.007542 
PRIMCOORD
36 1
Li	      4.25742     10.33745      6.44255        -0.065116      0.025782      0.005625
Li	      2.10749      2.06697      0.03852         0.033882      0.017298     -0.026983
Li	      4.21340      8.20539      8.58811         0.003760     -0.038703     -0.023100
Li	      4.19108      0.06200      4.27472         0.004079      0.027921     -0.033123
Li	      6.37266      2.05246      8.49934        -0.030451     -0.029417     -0.039833
Li	      2.15882      2.04764      4.25311         0.019287     -0.041410     -0.022611
Li	      6.41850      4.15466      6.40047        -0.009939     -0.050165     -0.021161
Li	      2.13733      6.18131      4.32241        -0.041909      0.096471     -0.018222
Li	      6.35382      6.22199      8.51332         0.028241     -0.020010      0.042762
Ti	      4.31243      4.16771      4.19310         0.248772     -0.075544     -0.334686
Ti	      6.25293      4.27642     10.68806        -0.267715      0.398051      0.012473
Mn	      6.41471      8.21787     10.64038         0.022280     -0.099515      0.016140
V	      8.51276      6.14954      6.46611         0.200826     -0.163601      0.012846
V	      4.27549      6.22429      6.46069         0.030524     -0.055818      0.129296
Cr	      2.10146      4.18052      6.42042         0.008004      0.035745      0.078972
Fe	      2.08008      3.98325      2.12311        -0.038596      0.172183     -0.039665
Fe	      8.51829      8.27956      8.61478         0.014526     -0.010568     -0.052763
Cu	      2.13273      0.10306      2.07091        -0.023378      0.090979      0.085877
O	      2.12013      2.06370      2.07655        -0.042119     -0.038521      0.056286
O	      4.05834      4.14057      2.32510        -0.062671     -0.012309      0.310248
O	      4.19301      2.17076      4.41639        -0.016086      0.168604     -0.002288
O	      6.20553      4.15018      4.25113        -0.306702      0.061716     -0.057880
O	      6.08790      2.08352      6.39287        -0.068892     -0.004903      0.050037
O	      8.39495      4.22323      6.54498         0.006544      0.083327     -0.098867
O	      2.09985      4.14665      4.31268         0.020197      0.020543      0.073396
O	      4.24607      6.14200      4.41621        -0.050137     -0.011188      0.018262
O	      4.14667      4.11546      6.32999        -0.056441     -0.099632     -0.080567
O	      6.42999      6.28731      6.42951        -0.205634      0.055963     -0.098905
O	      6.44968      4.06370      8.76375        -0.010442      0.037992      0.241267
O	      8.43593      6.21168      8.42522        -0.012474     -0.140650     -0.078635
O	      2.22000      6.18497      6.43266         0.140192     -0.102408     -0.067780
O	      4.35534      8.26399      6.27697         0.081043      0.171901     -0.093856
O	      4.35810      6.16248      8.42950         0.144804      0.122756     -0.021827
O	      6.34256      8.44353      8.45053        -0.038195     -0.121363     -0.065075
O	      6.34365      6.12094     10.71356         0.010558     -0.509946      0.021224
O	      8.59827      8.27796     10.75162         0.329379      0.038438      0.123115
