# total energy = -243.48555345 eV
 
CRYSTAL
PRIMVEC
-0.005245 6.381252 6.382026 
6.305229 0.025355 6.351397 
4.218532 4.249046 0.001701 
PRIMCOORD
36 1
Li	      4.23281     10.62074      6.41010        -0.026436     -0.008234      0.026589
Li	      6.35698      8.48606     10.65365         0.018861     -0.044693     -0.036373
Li	      6.26116      2.27391      8.50956        -0.032235     -0.025533      0.022458
Li	      8.25774      4.35303      8.50064         0.011839      0.011688      0.027248
Li	      6.32806      4.25916      6.58886        -0.009778      0.018709      0.069056
Li	      8.39724      6.36935     10.51463        -0.029443     -0.027366     -0.064306
Li	      2.08721      4.26414      6.32609         0.003241     -0.002920     -0.011332
Li	      4.31776      4.20970      8.49985        -0.065833     -0.033604      0.001826
Li	      6.40918      6.23156      8.47523         0.000324     -0.001493      0.011631
Ti	      4.30581      6.39844     10.62248         0.372037     -0.052351      0.016635
Ti	      4.30803      2.20574      6.50588         0.032391      0.163714      0.620626
Mn	      4.26777      6.33110      6.42836         0.024775     -0.026492     -0.014978
V	      6.26370     10.52007      8.48937         0.021541     -0.134162     -0.044128
V	      2.10371      2.17264      4.25170        -0.010734      0.114228     -0.033149
Cr	      6.28532      4.28280     10.53928         0.035072      0.019036      0.019496
Fe	      8.31433      2.14432      6.38193        -0.004839      0.093917      0.033061
Fe	      4.22961      8.52802      8.44306         0.020416      0.019690      0.019994
Fe	      4.15614      4.30701      4.21295        -0.033749      0.043586      0.068866
O	      2.13943      2.00693      2.11426        -0.080435     -0.101900      0.011072
O	      4.33035      4.26144      2.19969         0.160353     -0.020702     -0.184155
O	      4.23004      2.01847      4.29520        -0.035509     -0.149657      0.035372
O	      6.41221      4.36674      4.09436         0.061234      0.001072     -0.027091
O	      6.26400      2.15536      6.34894        -0.127839      0.014648     -0.021559
O	      8.39486      4.30002      6.22541         0.004672      0.032345     -0.146143
O	      2.00131      4.16280      4.21792        -0.053773     -0.033635      0.033738
O	      4.23542      6.47350      4.26691        -0.030532      0.041059     -0.021077
O	      4.21582      4.12248      6.26447         0.030219     -0.205536      0.096594
O	      6.45351      6.36563      6.24379         0.068029     -0.011839     -0.018698
O	      6.28228      4.27973      8.58786        -0.006882     -0.021766      0.041193
O	      8.40833      6.39407      8.32526         0.024101      0.001992     -0.583843
O	      2.05408      6.49473      6.51055        -0.018812     -0.051312      0.037934
O	      4.05609      8.52973      6.31028         0.018453     -0.009530     -0.080460
O	      4.11035      6.37988      8.60028        -0.081356      0.041535      0.109090
O	      6.30633      8.71352      8.47695         0.078571      0.250085     -0.028155
O	      6.18996      6.35316     10.54689        -0.358421     -0.039173      0.050777
O	      8.41996      8.65634     10.71214         0.020478      0.134595     -0.037806
