# total energy = -239.63063110 eV
 
CRYSTAL
PRIMVEC
0.023641 6.454972 6.219225 
6.274914 0.059008 6.184513 
4.202955 4.300342 0.019343 
PRIMCOORD
36 1
Li	      6.29936      6.47680     12.30769        -0.019466     -0.011853      0.117088
Li	      4.41854      6.58680     10.33630         0.007621      0.005692      0.016824
Li	      6.24991      8.45431     10.36001         0.009538      0.056947      0.070094
Li	      4.23795      6.43942      2.18830        -0.019693      0.010719      0.032740
Li	      2.17386      4.26283      2.19317         0.044840      0.041375     -0.043624
Li	      2.12941      2.20071      4.07632        -0.021717     -0.073866      0.022473
Li	      4.12080      4.31246      4.05756         0.053742      0.032714     -0.020517
Li	      6.34836      4.51028     10.30170        -0.007870     -0.002371     -0.006579
Li	      6.31992      6.43310      8.41940        -0.010077     -0.055100     -0.054707
Ti	      6.37803      4.25560      6.06795         0.047484     -0.180217     -0.360101
Ti	      8.46209      8.54169      8.43793         0.307031     -0.159462      0.095928
Mn	      4.21555      2.11010      6.11769         0.012120     -0.036092      0.043229
Mn	      4.19789      6.47862      6.12801        -0.009667     -0.062934     -0.060712
V	      6.22481      4.37367      2.18324         0.067852     -0.111070     -0.298696
V	      2.05243      4.31658      6.11777         0.091255      0.050319     -0.119276
Cr	      4.19361      2.19768      2.14084         0.159329     -0.033257     -0.023847
Co	      8.34642      6.51035     10.33274        -0.026024     -0.097022      0.026765
Ni	      8.42014      8.69343     12.39633        -0.027936      0.004059     -0.131760
O	      2.18622      2.09547      2.04801        -0.019554     -0.250872      0.029740
O	      4.29550      4.19478      2.05819        -0.340555      0.073268      0.214753
O	      4.20345      2.13936      4.06867        -0.021882      0.048253     -0.141280
O	      6.25392      4.36627      4.20700        -0.005712     -0.053938      0.564277
O	      6.32447      2.37547      6.21481        -0.051324      0.146836     -0.001134
O	      8.25089      4.32113      6.22783        -0.137362      0.036009      0.008327
O	      2.09739      4.49928      4.21148        -0.034469      0.021680     -0.014867
O	      4.05479      6.46976      4.23980        -0.028374      0.022126     -0.021760
O	      4.13485      4.28025      6.31795         0.016305      0.046137      0.073497
O	      6.19847      6.46229      6.15194        -0.057283      0.007922      0.036334
O	      6.10834      4.39898      8.14449        -0.253249     -0.036028      0.063782
O	      8.39097      6.62688      8.36027         0.006954      0.264522      0.013987
O	      2.17322      6.46420      6.19685         0.073632     -0.011268     -0.110372
O	      4.25986      8.62454      6.30349         0.011391      0.019616      0.076265
O	      4.11435      6.44185      8.18656         0.131523      0.135653      0.144514
O	      6.34211      8.71423      8.22438        -0.007469      0.225840      0.038410
O	      6.43673      6.51477     10.35342         0.079654     -0.044607     -0.004227
O	      8.40668      8.57729     10.31202        -0.020586     -0.029731     -0.275567
