# total energy = -244.18103995 eV
 
CRYSTAL
PRIMVEC
0.028200 6.272475 6.541310 
6.182266 0.035572 6.534146 
4.122845 4.177962 0.022869 
PRIMCOORD
36 1
Li	      4.09540      4.15746      0.07792         0.011374     -0.014917      0.093968
Li	      4.14309      8.37163      8.71717        -0.020175      0.003745     -0.055279
Li	      6.24778      8.36748     10.89042        -0.000987      0.014657      0.009825
Li	      6.16713      2.24772      8.76235         0.010772      0.022874      0.001250
Li	      6.13478      6.29256      4.38873        -0.015137     -0.022593      0.006633
Li	      6.19711      4.24085      6.70510         0.010059      0.001128      0.061725
Li	      6.19538      4.15603     10.79320        -0.017249     -0.004366     -0.010867
Li	      4.15007      6.23657      6.52196        -0.008041     -0.002751     -0.048253
Li	      4.23269      4.20571      8.69209        -0.015162     -0.008109     -0.022621
Ti	      2.09290      0.08303      2.20507         0.010569      0.177648      0.083712
Ti	      6.05185      8.35910      6.57305        -0.474114      0.015330      0.050497
Mn	      8.32265     10.42082     10.96686        -0.002741      0.017941     -0.052144
Mn	      8.25551      6.36831     10.87517        -0.005232      0.008397     -0.028358
V	      4.14369      4.21118      4.35696        -0.021327     -0.025885     -0.056720
V	      4.30160      2.11928      6.52002         0.036575      0.058102     -0.040629
Cr	      6.18252      6.28183      8.69836        -0.035911      0.022174      0.100821
Co	      2.11785      8.35002      6.54882        -0.000162      0.069414      0.052701
Co	      2.04886      4.12998      2.17564         0.012688     -0.022428      0.022295
O	      2.05687      2.00069      2.09304        -0.016190     -0.247341      0.013270
O	      4.19428      4.12417      2.33290         0.055145     -0.016954     -0.012979
O	      4.11065      2.16396      4.56391         0.002061     -0.008877      0.025679
O	      6.19001      4.17937      4.14440        -0.019095     -0.009538     -0.143313
O	      6.08615      2.13860      6.59504        -0.007954      0.029717     -0.006720
O	      8.26837      4.30882      6.55793        -0.029420     -0.089009      0.084486
O	      2.05501      4.26672      4.50305         0.014977      0.009816      0.005853
O	      4.04116      6.17702      4.38580        -0.003462      0.039073      0.029695
O	      4.07253      4.11350      6.41327         0.012983      0.004282      0.053969
O	      6.27781      6.38693      6.64366        -0.018518      0.069383      0.004974
O	      6.21763      4.31509      8.71510         0.025464     -0.042812     -0.043721
O	      8.19301      6.28987      8.59402         0.028557      0.037972      0.023780
O	      2.05926      6.16925      6.69488         0.001022     -0.016314      0.017564
O	      4.20355      8.34719      6.55122         0.446999     -0.022956      0.023833
O	      4.09731      6.28310      8.73949        -0.038885     -0.000612     -0.041123
O	      6.20601      8.39537      8.55222         0.025130      0.009317     -0.123139
O	      6.28830      6.35851     10.70792         0.069356      0.006935     -0.031773
O	      8.26763      8.31393     11.04300        -0.023966     -0.062444     -0.048893
