# total energy = -241.21319940 eV
 
CRYSTAL
PRIMVEC
0.025976 6.362141 6.397062 
6.222140 0.032034 6.390772 
4.179644 4.268685 -0.010048 
PRIMCOORD
36 1
Li	      6.22586      0.04527      6.39161         0.030446      0.001672     -0.042454
Li	      4.28671      8.53552      8.58117         0.010327      0.012812      0.034922
Li	      6.13595      2.15233      4.17530        -0.078969      0.051896     -0.065763
Li	     10.38920      6.39504      8.49695        -0.004486      0.045412     -0.051798
Li	      4.16713      4.16291      4.24284        -0.024399     -0.147630      0.020390
Li	      4.16929      2.15925      6.33534        -0.000528     -0.019121     -0.100085
Li	      6.28564      8.51361      6.46293        -0.025757     -0.007436      0.106474
Li	      8.25164      8.50004      8.52199        -0.060947      0.006154      0.030088
Li	      6.29518      6.48052      8.54125         0.116949      0.028155      0.031335
Ti	      6.16693      4.17532      6.41035        -0.244837     -0.215365      0.289342
Ti	      4.23177      6.45269      6.50470         0.226716      0.343586      0.047685
Mn	      6.14857      4.19557      2.15360         0.000274     -0.074987      0.023040
Mn	      8.31183      6.41397     10.62086         0.039458     -0.083424     -0.058327
V	      8.30154      2.16883      6.39594         0.076985     -0.040905     -0.089960
V	      2.18648      4.30823      2.09805        -0.055910     -0.111298      0.168037
Cr	      4.22494      6.42629     10.64210        -0.002349     -0.013253     -0.096981
Fe	      2.12721      2.15681      4.23167        -0.121864      0.024945     -0.022698
Cu	      6.25833      4.31949     10.61774        -0.006532     -0.021059     -0.026935
O	      2.04181      2.09820      2.00828        -0.038085     -0.067888      0.015479
O	      4.18816      4.26106      2.09502        -0.042270      0.036748      0.034895
O	      4.12074      2.03640      4.27874         0.129280     -0.048369      0.007025
O	      6.34527      4.29643      4.36726         0.000633     -0.067206      0.079612
O	      6.28389      2.26836      6.36159        -0.039446      0.262799     -0.085963
O	      8.27993      4.26793      6.31744         0.034020      0.029504     -0.010282
O	      2.02582      4.23586      4.14941         0.256321      0.189970     -0.011236
O	      4.16730      6.49062      4.40915        -0.232411     -0.213634      0.090891
O	      4.27661      4.36142      6.38135         0.196163      0.082982     -0.007635
O	      6.12233      6.34190      6.45358        -0.240883     -0.076959      0.030936
O	      6.39293      4.24972      8.30343         0.015763      0.028401     -0.474864
O	      8.35140      6.27369      8.64282         0.043711      0.223521      0.193682
O	      2.17143      6.41314      6.27401        -0.020312     -0.068830     -0.142026
O	      4.12412      8.35099      6.51283         0.026844     -0.350733      0.159955
O	      4.02812      6.35375      8.51393         0.069217     -0.007164     -0.068651
O	      6.26293      8.68302      8.51016         0.011682      0.075685      0.050630
O	      6.24931      6.32186     10.63824         0.117289      0.265439     -0.044935
O	      8.43185      8.63304     10.74803        -0.162093     -0.074420     -0.013824
