# total energy = -237.95415829 eV
 
CRYSTAL
PRIMVEC
0.071297 6.287591 6.293134 
6.368095 0.069829 6.295316 
4.284017 4.232154 0.007798 
PRIMCOORD
36 1
Li	      4.23221      4.24560      0.07626        -0.051696      0.012847     -0.032917
Li	      6.47617     10.40619      8.39466         0.008352      0.006471      0.004284
Li	      4.30969      6.32771     10.38300        -0.029523     -0.033512     -0.054414
Li	      6.41447      8.44955     10.36225         0.074382     -0.027760      0.021539
Li	      8.59338      4.32342      8.34648        -0.031417     -0.000213      0.017037
Li	      4.33905      4.20377      4.15396        -0.011567      0.061097      0.018960
Li	      8.55072      6.35217      6.37007        -0.022770     -0.014636      0.035573
Li	      6.52618      8.51903      6.45093         0.078707      0.052039     -0.029214
Li	      8.42705      8.50208      8.37508         0.039149     -0.012385     -0.022186
Ti	      6.38818      4.16678      6.17604        -0.128076     -0.058733     -0.155437
Ti	      6.37711      4.36523     10.43958         0.023118      0.107484     -0.134188
Mn	      4.22451      6.19093      2.08977        -0.172985      0.165667      0.173285
Mn	      2.16787      6.26694      4.21686         0.099535     -0.061702     -0.065429
V	      2.14047      2.13191      0.06129        -0.100057      0.035649     -0.020601
V	      2.27942      2.14121      4.16991        -0.407527      0.014578      0.101481
Cr	      4.35043      6.34146      6.36991         0.089077     -0.267598     -0.169548
Ni	      4.44584      8.48777      8.36570        -0.099634      0.128916     -0.035039
Ni	      6.46859      6.43338      8.37394         0.136356     -0.115382     -0.037685
O	      2.01968      2.10234      2.13902         0.009478     -0.023251     -0.066164
O	      4.25979      4.29441      2.09207         0.015572     -0.063889      0.008951
O	      4.04226      2.17307      4.14964         0.320016      0.000224      0.037630
O	      6.40574      4.36485      4.28647         0.003535     -0.015103      0.210826
O	      6.39855      2.25020      6.21779        -0.007845      0.140034     -0.031371
O	      8.34914      4.19424      6.33282        -0.076153     -0.004393     -0.020527
O	      2.00429      4.09609      4.24836        -0.074488     -0.029278     -0.022324
O	      4.45496      6.39720      4.28575         0.010432      0.068461      0.080878
O	      4.45879      4.32883      6.31037         0.143206      0.056922     -0.015364
O	      6.41567      6.25900      6.23372        -0.036029     -0.035496     -0.097923
O	      6.36815      4.15241      8.47463         0.010686     -0.061951      0.104626
O	      8.62007      6.33908      8.40693         0.088242     -0.001079      0.014304
O	      2.35286      6.41094      6.31864        -0.006735      0.058637      0.043343
O	      4.29525      8.39401      6.23655         0.006585      0.015529     -0.026500
O	      4.42018      6.43204      8.32018        -0.119837     -0.090777      0.072328
O	      6.43339      8.41525      8.42204         0.151515      0.182382      0.010096
O	      6.41315      6.23530     10.47492        -0.045686     -0.227146      0.093349
O	      8.72734      8.48396     10.61640         0.114080      0.037346     -0.011660
