# total energy = -233.44816409 eV
 
CRYSTAL
PRIMVEC
0.005182 6.354987 6.158336 
6.232186 -0.008465 6.172411 
4.150937 4.241526 -0.001385 
PRIMCOORD
36 1
Li	      6.31274     10.47233      8.27518        -0.005051     -0.023058      0.015184
Li	      4.28315      8.39043      8.27290         0.044183      0.005669     -0.053778
Li	      4.15354      0.10125      4.03596         0.004365      0.009491      0.036603
Li	      6.15537      2.11567      4.05000         0.016621      0.062530      0.025141
Li	      0.01041      2.10575      2.03986        -0.046180     -0.012447     -0.041866
Li	      8.28880      4.21766      8.22910         0.008473     -0.043767     -0.051163
Li	      0.02113      4.23513      4.09167        -0.014808     -0.068524      0.037431
Li	      6.24019      8.41449      6.24467         0.005664     -0.020336      0.032450
Li	      4.17888      6.36432      6.24782        -0.037793      0.057470      0.053938
Ti	      4.13451      4.15482      0.08099        -0.073338     -0.053100      0.318175
Ti	      2.11210      6.26019      4.03452         0.222422      0.048617     -0.034530
V	      2.08597      2.09886      0.09034        -0.128867      0.029721     -0.186319
V	      6.18740      4.28843      6.14467         0.095096     -0.303949     -0.002365
Cr	      4.12413      4.31542      8.26490        -0.053261     -0.075057      0.162759
Co	      2.03885      2.15453      4.03615        -0.062851      0.045690     -0.111409
Co	      4.12823      4.24280      4.05244        -0.013785     -0.049714     -0.053567
Co	      6.19453      6.40765      8.27578        -0.263538      0.242258      0.025282
Cu	      4.11985      2.16153      6.12543         0.177680     -0.018063      0.076305
O	      2.06380      2.09959      1.86848         0.022218     -0.006123      0.252155
O	      4.13519      4.27440      1.90230         0.029754     -0.030589     -0.233132
O	      4.07129      2.27066      4.18127        -0.010633      0.156276     -0.187310
O	      6.18562      4.26783      4.27593        -0.090601     -0.036188     -0.187172
O	      6.28054      2.13503      6.14767         0.051658     -0.103738     -0.040891
O	      8.30771      4.08007      6.11391         0.076448     -0.191378     -0.022973
O	      2.09671      4.33603      4.07214         0.007759      0.076206     -0.039068
O	      4.07958      6.26830      4.07239        -0.044111     -0.044297     -0.002048
O	      4.24689      4.32628      6.26753        -0.008914      0.237138      0.016798
O	      6.28087      6.23857      6.13683        -0.165390      0.142379     -0.091143
O	      6.20775      4.24233      8.06253         0.030681     -0.068474     -0.059651
O	      8.23812      6.43985      8.23955         0.646131     -0.045877      0.350347
O	      1.99295      6.43442      6.08662        -0.073115     -0.047758     -0.091670
O	      4.07499      8.59595      6.15690         0.094412      0.114373      0.005353
O	      4.22258      6.28393      8.27277        -0.546452     -0.122222      0.127545
O	      6.31517      8.45046      8.23102         0.092443      0.212932      0.029060
O	      6.35957      6.33424     10.39297         0.025893     -0.001196      0.023283
O	      8.36442      8.30532     10.35428        -0.013217     -0.074896     -0.097752
