# total energy = -102.16700135 eV
 
CRYSTAL
PRIMVEC
3.898528 -0.000526 0.000378 
1.950717 4.977011 -6.722871 
1.949740 4.556448 1.964683 
PRIMCOORD
16 1
Li	      5.84861      4.78469      1.64050        -0.002596      0.019256     -0.022494
Li	      1.94991      2.75409     -0.37618         0.002501     -0.031626      0.013696
Li	      3.89981      4.96556     -0.22893         0.002129      0.024815      0.018373
Li	      3.89956      2.10687     -2.09493        -0.003468     -0.003704      0.046796
Ti	      3.89916      4.76564     -4.51944         0.001649     -0.139168      0.002144
Ti	      5.84872      7.27997     -4.83288         0.004734      0.179724     -0.582851
Ni	      1.95051      4.46990     -2.16279         0.001566      0.067702     -0.074470
Ni	      3.89987      6.90220     -2.30462        -0.000517      0.032292     -0.038675
O	      3.89998      4.90453     -2.56617        -0.003235     -0.072068     -0.184195
O	      5.84937      7.41367     -2.58170        -0.000814      0.230988     -0.060708
O	      3.89905      2.17608      0.10724        -0.002134      0.024018      0.556767
O	      5.84918      4.69149     -0.24217        -0.001890      0.019440      0.186471
O	      1.95016      2.50034     -2.32438         0.001529     -0.122449      0.138394
O	      5.84879      5.06529     -4.50798         0.002929     -0.014932     -0.016645
O	      3.89989      6.89964     -4.52443        -0.003000      0.000981     -0.068008
O	      5.84952      9.14511     -4.56119         0.000618     -0.215270      0.085406
