# total energy = -232.13981815 eV
 
CRYSTAL
PRIMVEC
0.028164 6.304873 6.237040 
6.281490 0.025620 6.239742 
4.194102 4.211548 0.010854 
PRIMCOORD
36 1
Li	      6.35069      6.34457     12.37937        -0.019827      0.044369     -0.027304
Li	      6.29018      2.14660      4.20904        -0.038889     -0.024180     -0.051604
Li	      2.15746      4.16299      2.25265         0.024850      0.008464      0.042150
Li	      6.26810      6.44257      4.26071         0.019657     -0.019777      0.048485
Li	      6.30837      4.25345      6.12537        -0.014058     -0.003345     -0.018146
Li	      0.22538      4.22771      4.21493         0.019337     -0.003243     -0.000139
Li	      2.08125      6.13096      4.34399        -0.019209      0.028413     -0.018979
Li	      2.11115      4.28546      6.07191         0.021697      0.015912      0.111108
Li	      4.14957      6.31438      6.11638         0.007552     -0.016899      0.016924
Ti	      8.32722      8.44558      8.29871        -0.188639     -0.085194     -0.171402
Ti	      6.38293      6.21536      8.31645         0.061463     -0.049300     -0.170384
V	      4.16112      2.24346      2.02591        -0.198813      0.033218      0.256258
V	      0.10125      2.13082      2.13685        -0.017156     -0.019529     -0.123795
Cr	      8.33392      4.21924      4.18303         0.036275      0.096954     -0.013494
Co	      8.36360      6.27354      6.20989        -0.025679     -0.038545     -0.008688
Co	      8.37680      8.40441     12.40312        -0.018830      0.050272     -0.168713
Co	      2.12408      6.31675      8.27552        -0.064129      0.021227     -0.059176
Ni	      4.14848      4.22775      4.24340         0.152300     -0.057858      0.147561
O	      2.10249      2.11945      2.07904         0.102427      0.082785      0.036897
O	      4.18504      4.19808      2.14307         0.125102     -0.062636     -0.169565
O	      4.20401      2.05509      3.97325         0.012558     -0.083582     -0.011991
O	      6.30550      4.19463      4.09238         0.069494      0.037383      0.008807
O	      6.22401      2.11410      6.49901        -0.006080     -0.004897     -0.038852
O	      8.37907      4.20344      6.12709        -0.005376      0.071521      0.027854
O	      2.16267      4.19399      4.18664        -0.144787      0.012877      0.044634
O	      4.20060      6.29709      3.94670         0.012786      0.098170      0.157070
O	      4.20759      4.18879      6.36999         0.030236     -0.025820      0.177036
O	      6.32451      6.28197      6.43030         0.014906     -0.013510      0.088907
O	      6.21177      4.22773      8.33808        -0.017986      0.045438      0.024297
O	      8.36559      6.45736      8.38005        -0.053668      0.037875     -0.022346
O	      2.13054      6.40479      6.28586        -0.004406     -0.014216      0.042439
O	      4.21016      8.41371      6.49703         0.069508      0.020822     -0.243651
O	      4.32304      6.30326      8.33365         0.002567     -0.048043      0.007336
O	      6.32167      8.33542      8.30279         0.089089     -0.080756      0.009619
O	      6.21100      6.31928     10.24280        -0.035531     -0.026648      0.012530
O	      8.35824      8.53155     10.23730         0.001258     -0.027721      0.058312
