# total energy = -236.98795562 eV
 
CRYSTAL
PRIMVEC
0.012448 6.255791 6.290207 
6.228713 -0.006035 6.308161 
4.162868 4.192787 -0.014275 
PRIMCOORD
36 1
Li	      4.15177      4.17640      0.02229         0.009361     -0.019480      0.032706
Li	      6.25275     10.44041      8.38293        -0.024562     -0.017388     -0.027107
Li	      8.34226     10.39852     10.47580         0.016326     -0.013468      0.024412
Li	      6.26017      2.13336      4.18619         0.036763      0.048051      0.016944
Li	      6.20278      2.17015      8.39744        -0.034597      0.090749      0.014316
Li	      6.22865      4.19381      6.39474        -0.031558      0.014563      0.037278
Li	      6.22625      4.17424     10.38298        -0.028408      0.017274     -0.083221
Li	      2.13034      4.17110      6.27980         0.066485     -0.013030     -0.004505
Li	      6.24373      6.18539      8.38764         0.021129     -0.003079      0.003137
Ti	      4.34250      8.36537      8.38850         0.478973      0.118347      0.057836
Ti	      6.20318      6.16276      4.17527         0.042689     -0.505999      0.036777
V	      8.17846      2.16580      6.27526        -0.163019     -0.037834     -0.151669
V	      8.15442      6.23983     10.47008        -0.148504      0.135928     -0.103791
Cr	      4.17487      6.24577      6.30703        -0.049669     -0.097338      0.060013
Co	      4.15757      4.17087      4.19658         0.051066     -0.000282     -0.004893
Co	      4.21997      4.22268      8.41314         0.115365     -0.019735     -0.055583
Co	      8.21131      4.19261      8.36931        -0.031644      0.120808     -0.062848
Co	      8.34843      6.25170      6.33796         0.014543      0.029733     -0.023147
O	      2.09462      2.09004      2.12999         0.077280     -0.122871      0.087801
O	      4.13279      4.01870      2.11665         0.013289     -0.257273     -0.021156
O	      4.05738      2.03037      4.13758        -0.143010      0.031415     -0.073440
O	      6.21985      4.31372      4.15104        -0.018528      0.444549     -0.014354
O	      6.37909      2.05349      6.32784         0.143280      0.056383      0.023124
O	      8.36387      4.10358      6.24229        -0.060752     -0.093656      0.177393
O	      2.09572      4.22606      4.20407        -0.009481     -0.065128     -0.098002
O	      4.19071      6.31221      4.26023         0.068850     -0.038918      0.030910
O	      4.16293      4.19584      6.26867         0.014669      0.004820     -0.000980
O	      6.20699      6.30581      6.11727         0.051781     -0.001583     -0.165550
O	      6.21741      4.20231      8.40091        -0.065259     -0.000432     -0.020322
O	      8.36139      6.28784      8.47956        -0.052610      0.110468      0.206616
O	      2.16809      6.35534      6.16918         0.036223      0.031421      0.006749
O	      4.02509      8.27494      6.43349        -0.028350      0.053667      0.070904
O	      4.17491      6.34189      8.31266        -0.027526      0.110443     -0.084708
O	      6.19005      8.37211      8.40122        -0.494581     -0.017743     -0.019190
O	      6.41547      6.24353     10.52328         0.119544      0.001009      0.012855
O	      8.32557      8.26155     10.60401         0.034444     -0.094390      0.114695
