# total energy = -231.83669839 eV
 
CRYSTAL
PRIMVEC
0.037969 6.258577 6.185402 
6.286619 0.029648 6.193642 
4.208583 4.195346 0.002155 
PRIMCOORD
36 1
Li	      4.23569      4.19833      0.10485        -0.000817      0.008329     -0.016745
Li	      4.24324      6.28819     10.20229         0.025865     -0.030957     -0.027947
Li	      6.32146      8.34761     10.20249        -0.009707      0.010123     -0.020387
Li	      4.07209      6.16445      2.14112        -0.005447      0.008114      0.036650
Li	      8.49372      4.37232      8.28772         0.035286     -0.041538      0.014373
Li	      4.21117      4.17396      4.03775         0.007212      0.000679      0.037338
Li	      8.41108      6.29781     10.12841         0.006297      0.001625     -0.024036
Li	      8.37792      8.29037      8.30478        -0.023256     -0.003447      0.039761
Li	      6.43085      6.29293      8.29613         0.032629     -0.022037     -0.008114
Ti	      8.24454      2.22152      6.11818        -0.031911     -0.069490     -0.197899
Ti	      2.14279      2.02521      4.03953         0.048459     -0.130399     -0.026204
V	      6.32257      4.33596     10.23603        -0.007637      0.028620     -0.055063
V	      4.21463      6.21846      6.25415        -0.001999     -0.048281     -0.004399
Cr	      8.43864      6.27483      6.24142         0.056608     -0.015181     -0.036970
Fe	      6.32206      4.12441      6.36856        -0.101914      0.133666     -0.096744
Co	      6.28264      4.23304      2.08573        -0.057069     -0.072297      0.013426
Cu	      2.12613      4.22903      6.20670         0.045335      0.025174     -0.059914
Ni	      4.26309      2.18216      2.08452        -0.067532     -0.074273      0.008820
O	      2.12533      2.03799      2.08055        -0.067606      0.050882      0.087420
O	      4.35984      4.17215      2.08774         0.034872      0.176727      0.026655
O	      4.07911      2.09554      4.18067        -0.099129      0.015482      0.072454
O	      6.29448      4.30427      4.07492         0.011463      0.099150     -0.078468
O	      6.31335      2.07525      6.12339         0.150218     -0.072559     -0.019904
O	      8.42365      4.16286      6.21951         0.082325     -0.120353      0.008772
O	      2.02522      4.07937      4.19972         0.035744      0.028973     -0.107197
O	      4.33374      6.40323      4.21579         0.028994     -0.080360     -0.012894
O	      4.20171      4.18744      6.16852        -0.021686      0.021501     -0.000745
O	      6.37408      6.19873      6.10369        -0.030574     -0.010608     -0.100011
O	      6.30376      4.16817      8.35245        -0.022697     -0.012325      0.147348
O	      8.41210      6.29848      8.15184        -0.002756     -0.003715      0.012902
O	      2.15547      6.44959      6.32992         0.026274      0.088910      0.039220
O	      4.12627      8.28294      6.13811        -0.105840      0.007359     -0.006187
O	      4.11214      6.35931      8.18684        -0.068906     -0.071062      0.073095
O	      6.31413      8.56373      8.16391         0.114163      0.066535      0.100510
O	      6.34571      6.09831     10.32082         0.012268      0.110076      0.008450
O	      8.49561      8.36509     10.43215        -0.027529     -0.003042      0.172638
