# total energy = -231.70046022 eV
 
CRYSTAL
PRIMVEC
-0.020336 6.148817 6.581192 
6.203580 0.020777 6.540071 
4.149702 4.085694 -0.000588 
PRIMCOORD
36 1
Li	      6.15050      4.10311      2.22134        -0.013335      0.018568     -0.014768
Li	      4.12773      0.07417      4.39211        -0.004823     -0.010028      0.005655
Li	      4.09932      6.24180      2.42420         0.052342     -0.035482      0.006960
Li	      6.10857      4.18912      6.65466         0.025132      0.035068      0.077374
Li	      0.07493      4.03898      4.28076        -0.035291      0.042671     -0.001318
Li	      2.15599      6.05230      4.33095        -0.054463      0.059952      0.021854
Li	      2.12223      4.07069      6.41115        -0.002207      0.017944     -0.020847
Li	      4.25242      6.05934      6.39594         0.036960     -0.005002      0.031369
Li	      6.24224      6.09902      8.72386        -0.037679      0.034395     -0.000493
Ti	      2.07260      8.11292      6.56892         0.084617     -0.280148      0.060152
Ti	      6.23522      2.12627      4.31794         0.022435     -0.082642     -0.089073
V	      6.19823      6.15382     13.04896         0.059652     -0.077930      0.070593
V	      4.13970      8.07290      8.71216         0.038267      0.043802     -0.080507
Cr	      4.19302      4.16559      8.77090        -0.059114      0.104226      0.024818
Fe	      8.12483      6.20372      6.75641         0.159214     -0.055585     -0.146685
Co	      8.16839      4.11885      8.79615        -0.044724      0.290909      0.101765
Cu	      6.14802      6.12371      4.46084        -0.049470      0.022431      0.067177
Cu	      4.09057      4.15666      4.37494         0.007026      0.149263      0.027628
O	      4.19970      6.07464      4.37778        -0.115149     -0.001040      0.010887
O	      2.14524      2.00444      1.91247        -0.114717      0.011425     -0.185225
O	      4.14218      3.84225      1.95502        -0.046245      0.025239     -0.026268
O	      4.14590      2.10729      4.19140         0.138541     -0.011918      0.012590
O	      6.12160      4.07247      4.36480         0.042268     -0.220473     -0.038932
O	      6.26719      2.08229      6.38580         0.015828      0.067571     -0.009550
O	      8.35807      4.10794      6.57044        -0.166118      0.006539     -0.043615
O	      2.12613      4.02419      4.29029         0.045791     -0.186621     -0.043665
O	      4.12590      4.06573      6.80804         0.020698      0.113730      0.091696
O	      6.28840      6.15845      6.62898        -0.148452     -0.029332      0.039483
O	      6.13850      4.14789      8.82686         0.118053     -0.038902      0.010928
O	      8.31957      6.23811      8.71229         0.015620     -0.197699      0.219187
O	      1.98898      6.22950      6.51555         0.070118      0.278295     -0.024358
O	      4.03933      8.14385      6.63580        -0.101532     -0.040798     -0.076191
O	      4.11953      6.25928      8.79083         0.009594     -0.152026      0.013529
O	      6.18109      8.20272      8.95189         0.098509      0.028699      0.101869
O	      6.14480      6.33095     11.08848        -0.009983      0.056920     -0.175497
O	      8.15795      8.27662     10.98348        -0.057364      0.017981     -0.018521
