# total energy = -233.08975754 eV
 
CRYSTAL
PRIMVEC
0.020123 6.301072 6.271710 
6.340686 0.019236 6.273113 
4.240943 4.215716 -0.001271 
PRIMCOORD
36 1
Li	      6.31673      0.04015      6.25780        -0.003313      0.029428      0.069936
Li	      8.47693      4.25682      4.25341        -0.026203     -0.021037      0.006499
Li	     10.51742      6.30885      8.35883        -0.041388      0.044598     -0.034754
Li	      2.15103      4.26402      2.18256        -0.095406      0.041009     -0.015914
Li	      8.49077      6.27081      6.30860         0.030958     -0.035510      0.062905
Li	      6.37445      4.22447      6.25811        -0.003439     -0.024968      0.116100
Li	      0.17915      4.23332      4.18608         0.064515     -0.027357     -0.096928
Li	      2.09853      6.15935      4.14769         0.019807     -0.022087     -0.041993
Li	      2.13068      4.21335      6.12029         0.024458     -0.003174      0.028091
Ti	      8.42800      2.28608      6.21105        -0.128689      0.386159     -0.127801
Ti	      4.24408      6.23040      6.13645        -0.129768     -0.220865     -0.261498
V	      4.21252      2.15840      2.08688         0.093848      0.004731     -0.039503
V	      6.45084      6.19925      8.39288         0.347264      0.213538      0.191861
Cr	      6.34228      4.21989      2.08834         0.006495     -0.060725     -0.026519
Fe	      6.31314      2.11778      4.26436         0.068052      0.165215     -0.014117
Co	      8.49946      8.38451      8.40877         0.388187     -0.332896     -0.003931
Ni	      2.13383      2.15651      4.21818        -0.000781     -0.042337     -0.080477
Ni	      4.17694      4.21020      4.17649        -0.002255      0.064714      0.068861
O	      2.13360      2.00783      2.03358         0.004106     -0.039978     -0.101477
O	      4.36007      4.12076      2.06806         0.003013      0.013220     -0.083212
O	      4.25423      2.10955      4.11995         0.095490     -0.114965      0.046362
O	      6.28933      4.19643      4.09610         0.103353     -0.038814      0.017914
O	      6.46581      2.10496      6.22079         0.140619     -0.001343      0.046295
O	      8.49697      4.09939      6.29034        -0.007747     -0.391271     -0.063838
O	      2.17939      4.14464      4.17790        -0.070378      0.090988     -0.005922
O	      4.28577      6.31890      4.26654        -0.089074     -0.007867      0.334854
O	      4.24984      4.34628      6.31029        -0.064129      0.329483     -0.056580
O	      6.22858      6.35462      6.38127        -0.138330     -0.016834      0.386136
O	      6.30750      4.38459      8.37162        -0.072377     -0.175209     -0.027918
O	      8.33867      6.33767      8.32023        -0.161531      0.055389      0.050285
O	      2.26775      6.37013      6.34723         0.109490     -0.000874     -0.027784
O	      4.14242      8.33552      6.33228        -0.037438     -0.068651     -0.065566
O	      4.23767      6.38124      8.31073        -0.101850      0.080578     -0.058578
O	      6.34922      8.43135      8.43055        -0.074956      0.221687      0.038036
O	      6.36322      6.43499     10.29261        -0.132841     -0.172716     -0.450966
O	      8.40479      8.44008     10.54134        -0.117763      0.078742      0.221142
