# total energy = -229.91925010 eV
 
CRYSTAL
PRIMVEC
-0.035344 6.345219 6.306607 
6.294458 -0.011392 6.282626 
4.182354 4.200211 0.006350 
PRIMCOORD
36 1
Li	      2.04473      2.12243      0.08996        -0.017468     -0.004799     -0.002947
Li	      6.19468      4.30517      2.15869        -0.009418      0.034030     -0.053352
Li	      4.05751      2.19797      2.05711        -0.034520      0.040156     -0.048777
Li	      8.21948      4.22180      4.21283        -0.063992      0.016460     -0.017071
Li	      6.28690      2.19898      4.23760        -0.030051      0.016005     -0.025790
Li	      2.15878      4.07715      2.19673         0.005037      0.059150     -0.008093
Li	      6.26372      4.17946      6.17832        -0.003797     -0.009710      0.019414
Li	      0.10066      4.27647      4.21543         0.031865     -0.022802      0.003080
Li	      2.03088      6.20362      4.26905         0.024450     -0.023588     -0.015062
Ti	      4.07446      6.42637      6.20987        -0.410685      0.294214     -0.022823
Ti	      6.25629      6.31693      8.53399         0.001959      0.127694      0.426151
V	      8.41281      6.12103      6.26713        -0.106318      0.245957     -0.172007
V	      8.36279      8.43455      8.54190        -0.082415     -0.027468      0.080258
Cr	      0.05176      2.13898      2.08685        -0.009470     -0.027104      0.048289
Fe	      4.23507      4.15674      4.11309        -0.036495     -0.054026      0.116030
Cu	     -0.01733      6.26673      6.24582        -0.107542      0.008313     -0.083194
Ni	      2.12745      2.09741      4.13990         0.058305     -0.018339      0.037084
Ni	      2.08319      4.21905      6.26896        -0.001422      0.040440      0.024218
O	      1.99014      2.14670      2.09014         0.013406     -0.007274     -0.104276
O	      4.16123      4.32604      2.15705        -0.005437      0.043291     -0.230726
O	      4.20330      2.15225      4.31374         0.101689     -0.050955     -0.046769
O	      6.18529      4.24512      4.18610         0.096779     -0.105756     -0.017103
O	      6.15831      2.18521      6.39745         0.177586     -0.036686      0.057440
O	      8.30788      4.38189      6.28481         0.129403     -0.381973      0.008226
O	      2.20449      4.17084      4.25093        -0.051126      0.113656     -0.123383
O	      4.20096      6.27307      4.24474        -0.111042      0.061895      0.092982
O	      4.15807      4.21206      6.39752         0.145948      0.109257     -0.021923
O	      6.31589      6.32420      6.35165        -0.118598     -0.122432      0.111691
O	      6.17344      4.24395      8.40759         0.014357      0.024669      0.025450
O	      8.35591      6.41058      8.31334        -0.026421      0.010513      0.085762
O	      2.24075      6.30109      6.29457         0.326997      0.117491      0.012192
O	      4.18870      8.27436      6.30051        -0.084432     -0.294762     -0.006547
O	      4.29799      6.22983      8.26708         0.110565     -0.013905      0.017106
O	      6.34809      8.26511      8.35300         0.066981     -0.162269      0.104435
O	      6.29258      6.29679     10.34146         0.021844     -0.030133     -0.263840
O	      8.31568      8.45635     10.28131        -0.016522      0.030788     -0.006124
