# total energy = -89.41679151 eV
 
CRYSTAL
PRIMVEC
-0.050597 2.005737 2.115248 
2.242078 -2.087720 0.028395 
10.646317 12.074954 0.029286 
PRIMCOORD
16 1
Li	      2.77207      2.30382      0.30978         0.004006      0.007000      0.031375
Li	      4.61815      2.16342     -1.49890         0.011917      0.002701      0.000602
Li	      6.01886      3.77822     -2.69100        -0.028767     -0.028634      0.012628
Li	      8.62356     10.06808     -6.73800        -0.002941     -0.009091      0.005924
Mn	      0.15436      0.11257      0.14180         0.039544      0.043263     -0.028197
Mn	      8.54384      5.93516     -6.63164         0.028422      0.027370     -0.053404
Ni	      6.08779      5.78743     -4.54996         0.008735      0.046618     -0.071847
Ni	     10.61645      9.97480     -8.61301         0.031613      0.063923     -0.060195
O	     10.60989     12.19599     -8.74705         0.035742      0.044691     -0.029138
O	      8.50136      7.87581     -6.46362        -0.011048     -0.005203     -0.004855
O	     10.84195      8.00141     -8.73954        -0.096395     -0.117131      0.104541
O	      6.13500      8.03611     -4.66584         0.015657      0.026871     -0.037816
O	      3.85825      3.57585     -2.78658         0.015277      0.005627      0.004469
O	      6.35068      3.83911     -4.70829        -0.088306     -0.121089      0.098406
O	      2.31218     -0.04366      0.33870         0.029431      0.000753      0.006133
O	      2.57511      2.25431     -1.65759         0.007114      0.012330      0.021374
