# total energy = -228.45746798 eV
 
CRYSTAL
PRIMVEC
-0.013686 6.306535 6.287782 
6.298476 -0.005165 6.280003 
4.201868 4.201839 -0.006074 
PRIMCOORD
36 1
Li	      6.29089     10.45790      8.36399         0.032938     -0.006362     -0.049992
Li	      6.19531      2.20571      8.37217        -0.036792      0.071444     -0.079421
Li	      4.17779      4.21002      4.44760        -0.024406     -0.013730     -0.019890
Li	      8.20891      6.54742      6.37034         0.000600     -0.017040      0.015082
Li	      6.06693      4.36368      6.40479         0.034862      0.039059      0.005608
Li	      2.33439      4.04907      6.31101        -0.036623     -0.011521      0.056130
Li	      4.34188      6.08356      6.32454        -0.009998      0.039935      0.041772
Li	      4.29696      4.15363      8.12142         0.049010     -0.023295      0.134170
Li	      6.32849      6.21678      8.12985        -0.017459      0.023397      0.023836
Ti	      2.05718      2.01648      0.08467         0.011817     -0.143199      0.122412
Ti	      6.22765      2.28134      4.16669        -0.035076      0.187731     -0.107774
V	      4.27242      8.36858      8.31669         0.011407     -0.077866     -0.078326
V	      2.20908      6.24436      4.12096        -0.127852      0.127928      0.112647
Cr	      8.33614      4.21467      8.33794        -0.073924     -0.054483     -0.167953
Fe	      4.22515      6.30876     10.49426         0.071757     -0.010472      0.019494
Ni	      0.00390      6.29907      6.29772         0.016436     -0.023016      0.003909
Ni	      6.24334      6.26441      4.32345        -0.033902      0.010246     -0.336943
Ni	      6.29962      4.23001     10.42416        -0.077141      0.005262      0.082367
O	      4.18982      4.20638      6.30016        -0.021802     -0.015332      0.064070
O	      2.12547      2.12745      2.03078        -0.040528     -0.030756     -0.034295
O	      4.10131      3.98728      2.02970        -0.010081      0.001536      0.161983
O	      4.30297      2.13214      4.09012         0.147420      0.099533      0.073755
O	      6.31220      4.13398      4.16125        -0.089118     -0.277177     -0.045147
O	      6.42422      2.06346      6.15672         0.079306      0.057193     -0.020181
O	      8.45732      4.03818      6.27154        -0.100996     -0.066433      0.058865
O	      2.04924      4.26899      4.07847         0.116593      0.044756     -0.030536
O	      4.02335      6.34320      4.18757         0.137919     -0.032380     -0.039752
O	      6.29334      6.31539      6.21577         0.033354      0.009564      0.149432
O	      6.37390      4.19605      8.43469         0.040320     -0.011080     -0.123401
O	      8.40779      6.19633      8.49577         0.013874     -0.150365     -0.016097
O	      2.06045      6.42138      6.20266         0.074048      0.138784      0.073989
O	      4.05871      8.42076      6.30835        -0.059094     -0.079862     -0.022346
O	      4.15422      6.55347      8.45436        -0.003134      0.030330     -0.092634
O	      6.19837      8.43969      8.51099         0.052267      0.055724      0.136822
O	      6.45301      6.37392     10.52499        -0.007546      0.072950     -0.082216
O	      8.34166      8.32807     10.54158        -0.118455      0.029000      0.010562
