# total energy = -236.30407354 eV
 
CRYSTAL
PRIMVEC
-0.002181 6.319388 6.150621 
6.374501 -0.002507 6.151080 
4.248025 4.211484 -0.000013 
PRIMCOORD
36 1
Li	      4.24441      8.40982      8.19802        -0.023386      0.028229     -0.031992
Li	      4.29706      6.35563     10.22653         0.004504      0.009339      0.029102
Li	      6.32511      2.08253      4.10212        -0.040304      0.002482      0.007341
Li	      4.24621      6.31332      2.08402         0.051766      0.007954      0.018052
Li	      8.46172      4.24382      8.25679        -0.052987      0.024640      0.013152
Li	      0.08658      4.19473      4.10684         0.026964     -0.007385      0.018925
Li	      2.13574      6.23874      4.08274         0.025583     -0.002557      0.051970
Li	      6.30574      8.43015      6.11113        -0.095868      0.036747     -0.026768
Li	      4.26418      6.33066      6.13978         0.004258     -0.011299     -0.043821
Ti	      2.20790      8.39285      6.07103         0.249054     -0.122521     -0.147866
Ti	      6.34265      4.26218      6.12871        -0.134536      0.136840      0.053132
V	      6.32965      0.03400      6.11647         0.056978     -0.091380      0.024349
V	      4.13211      4.23076      4.05229        -0.008801      0.102211     -0.088868
Cr	      2.16407      6.29968      8.21403        -0.022222      0.002571     -0.090264
Fe	      8.48313      8.38754      8.32439         0.046261      0.021071     -0.035393
Fe	      6.36172      6.38678      8.32447        -0.183139     -0.021806     -0.053075
Co	      2.11495      2.16876      4.04852        -0.035107      0.085607     -0.000874
Cu	      8.50260      6.27712      6.15065        -0.075517      0.018725     -0.077210
O	      2.17786      1.97749      1.97272        -0.052617     -0.007129     -0.199389
O	      4.36029      4.22043      2.01691         0.067356      0.016724     -0.054213
O	      4.23675      2.34174      4.06931         0.009656     -0.147349      0.166503
O	      6.32103      4.20184      4.12813         0.086100      0.020318      0.085799
O	      6.52113      2.12504      6.14862         0.039312      0.086420      0.023950
O	      8.41703      4.05839      6.17238        -0.046545     -0.114850      0.001354
O	      2.20942      4.22623      4.09208        -0.003516     -0.148828     -0.001503
O	      4.30171      6.09595      4.07617         0.031393      0.016900      0.027345
O	      4.39677      4.26452      6.11875         0.215725      0.024184      0.141364
O	      6.32459      6.18507      6.19545        -0.047711     -0.141569      0.085850
O	      6.28869      4.26248      8.11311         0.051887      0.035562     -0.149254
O	      8.35184      6.41425      8.22902         0.071700     -0.123007     -0.067964
O	      2.06428      6.40418      6.21626         0.027002      0.110138      0.045930
O	      4.14061      8.53613      6.12871        -0.175099      0.025266      0.022943
O	      4.22668      6.22572      8.24442         0.033140     -0.015836     -0.056695
O	      6.45751      8.43005      8.17717        -0.038532      0.054314      0.015714
O	      6.31118      6.35612     10.27853        -0.004423      0.030444      0.029468
O	      8.55262      8.36201     10.31368        -0.058327      0.058830      0.262905
