# total energy = -235.84155792 eV
 
CRYSTAL
PRIMVEC
0.015798 6.237672 6.416976 
6.229348 0.022772 6.410148 
4.166916 4.167801 0.001052 
PRIMCOORD
36 1
Li	      2.16381      8.33736      6.40242         0.013976     -0.026674     -0.023176
Li	      2.12986      6.24267      8.50130        -0.011976      0.003357     -0.040674
Li	      4.19447      6.23245     10.68264         0.006891     -0.006866     -0.016469
Li	      8.27484      4.22832      8.61805        -0.030154     -0.005991      0.064241
Li	      0.10138      4.21330      4.30106         0.011940      0.007817      0.003813
Li	      2.04546      6.15160      4.29249        -0.019757      0.037930      0.034442
Li	      2.03865      4.13948      6.31305        -0.019362     -0.010787     -0.084751
Li	      4.18696      6.29830      6.42719        -0.010251      0.029753     -0.039800
Li	      6.23041      6.23112      8.50927         0.027429      0.010686     -0.027819
Ti	      6.33615      8.30996     10.63394         0.215484     -0.030727     -0.208673
Ti	      4.22160      6.24740      2.31682         0.070592      0.204445      0.553338
V	      0.11405      6.16872      6.40475         0.063451     -0.090954      0.003564
V	      8.29098      6.25706      6.40596        -0.271557     -0.011340     -0.011058
Cr	      4.12250      8.26165      8.54562        -0.006585     -0.035761      0.066526
Fe	      4.06054      4.21002      4.27503        -0.013845     -0.074858      0.111080
Fe	      4.19631      4.30150      8.51135        -0.101973     -0.079581      0.024523
Co	      6.22588      6.29603      4.29982        -0.018956     -0.108741      0.091241
Ni	      6.30693      4.18388      6.42421         0.056839      0.085661      0.006637
O	      2.03305      2.04625      2.18559        -0.028265      0.090269      0.178945
O	      4.16487      4.17749      2.04898        -0.025119      0.070074     -0.027201
O	      4.23126      2.04098      4.21024         0.123688     -0.027323      0.013550
O	      6.15414      4.07423      4.37325         0.102250      0.156579     -0.116988
O	      6.21519      2.06677      6.36675         0.044331     -0.121888     -0.014813
O	      8.45690      4.25860      6.40958         0.078251     -0.024658      0.018032
O	      2.09392      4.13426      4.26984        -0.086315     -0.398609      0.029608
O	      4.10402      6.31769      4.17152        -0.001047      0.047753     -0.421342
O	      4.18486      4.11669      6.51385        -0.023663     -0.013425     -0.001652
O	      6.33624      6.21214      6.38546         0.058604      0.166094     -0.481134
O	      6.21964      4.06954      8.49675         0.065269     -0.153815      0.080857
O	      8.47899      6.34624      8.48255         0.067057     -0.039538     -0.044451
O	      1.88866      6.25216      6.41708        -0.087135      0.050651      0.025811
O	      4.13848      8.41152      6.56230         0.004875      0.019022     -0.003623
O	      4.15733      6.25152      8.51507         0.029126      0.147027     -0.027603
O	      6.19977      8.30333      8.69643        -0.002055      0.000482      0.198906
O	      6.24916      6.36126     10.82321         0.017363      0.125386      0.013798
O	      8.20820      8.37271     10.54281        -0.299399      0.008549      0.072316
