# total energy = -238.51194795 eV
 
CRYSTAL
PRIMVEC
-0.007298 6.283960 6.304015 
6.363906 -0.005216 6.301821 
4.235937 4.181163 0.003199 
PRIMCOORD
36 1
Li	      8.45427      2.11870      6.33265        -0.014407      0.029522      0.062683
Li	      6.31116      2.14051      4.27205        -0.040283     -0.029263      0.004340
Li	      0.05094      2.11326      2.10948         0.076435     -0.001607      0.091473
Li	      2.10345      4.12752      2.11815        -0.036647     -0.011221      0.015753
Li	      4.23422      4.18745      4.38969        -0.006759      0.007030      0.016851
Li	      4.32067      2.21268      6.22539        -0.045661     -0.036346     -0.038394
Li	      6.22617      4.07108      6.26581         0.006568     -0.028840      0.003009
Li	      2.21643      4.19287      6.23275         0.025280     -0.056693     -0.031152
Li	      4.24389      6.16576      6.19744         0.058714     -0.004245     -0.055599
Ti	      6.32095      0.14010      6.32264        -0.154442      0.326859     -0.073920
Ti	      6.41990      6.24336      8.19664         0.131080     -0.162061     -0.779070
V	      2.10490      6.27829      8.36943         0.133360      0.217118      0.197216
V	      2.19209      6.23806      4.24962        -0.013149      0.039107     -0.021906
Cr	      4.24274      4.17581      8.31966        -0.108525      0.181664     -0.074235
Fe	      4.17317      2.12734      2.05105        -0.045240     -0.047962      0.107410
Fe	      8.40653      4.17836      4.30063         0.108114     -0.057808     -0.096248
Co	      6.32895      6.32528      4.26082        -0.240909      0.058749     -0.046261
Co	      4.25953      8.32919      4.29902         0.123337      0.205183      0.155134
O	      2.18450      1.99316      2.12195        -0.032187     -0.240545     -0.261778
O	      4.26931      4.12337      2.00547         0.100031      0.080178     -0.113175
O	      4.21489      1.99729      4.08015        -0.151908      0.028046      0.049665
O	      6.44146      4.15941      4.10651        -0.082768      0.116923     -0.147118
O	      6.36478      1.97551      6.34125         0.004379     -0.378214     -0.001794
O	      8.61197      4.17086      6.21715         0.207915      0.027041      0.121004
O	      2.08211      4.24652      4.19576        -0.142536     -0.156931     -0.009152
O	      4.17139      6.27479      4.19908         0.051122     -0.359520     -0.028767
O	      4.24722      4.17754      6.39812        -0.012560      0.023262      0.095602
O	      6.35688      6.27711      6.39245         0.040340     -0.018742      0.871877
O	      6.27725      4.33757      8.42456        -0.012342      0.056237      0.071074
O	      8.32949      6.34421      8.45453        -0.111256     -0.006159     -0.014161
O	      2.00272      6.28591      6.35376         0.010123     -0.002578      0.182697
O	      4.21598      8.46280      6.39810         0.012011      0.026088     -0.234771
O	      4.31039      6.26019      8.46128         0.040245     -0.089837     -0.008732
O	      6.37367      8.34280      8.40567         0.014635     -0.020082     -0.025731
O	      6.40087      6.29664     10.56381        -0.018929      0.207740      0.034159
O	      8.49776      8.35260     10.41549         0.126818      0.077903     -0.017982
