# total energy = -232.72924090 eV
 
CRYSTAL
PRIMVEC
0.012988 6.269820 6.366602 
6.131126 0.003991 6.375761 
4.098412 4.196749 -0.008014 
PRIMCOORD
36 1
Li	      6.14947      6.27259     12.64775         0.010324     -0.005518     -0.040104
Li	      6.17492      4.16471      2.18543         0.020128      0.004108      0.054272
Li	      4.14026      8.29182      8.58356        -0.017845     -0.080465      0.065128
Li	      6.10662      8.31816     10.54273        -0.012152      0.014910     -0.011160
Li	      4.12676      6.28600      2.19756        -0.001294     -0.059564      0.008178
Li	      4.11244      4.20035      4.16410        -0.022775     -0.034013     -0.107634
Li	      6.13761      4.19256     10.61771         0.056538      0.023241      0.022680
Li	      4.10825      6.29235      6.38049         0.002128     -0.022241      0.054477
Li	      6.07983      6.31629      8.56824        -0.014182      0.037492      0.017482
Ti	      2.16742      8.25026      6.39788         0.155190     -0.111399      0.246483
Ti	      6.08554      4.21280      6.31590        -0.042725      0.048802     -0.321228
V	      2.13592      4.18803      2.15343         0.395150     -0.133324     -0.018562
V	      6.09045      8.31934      6.42478        -0.046999     -0.012242      0.013592
Cr	      4.11086      4.23915      8.55475        -0.057521      0.117815      0.008483
Fe	      4.14452      2.07711      6.27355        -0.007410      0.077749      0.084275
Fe	      8.19387      6.28690     10.56971         0.000070     -0.017619      0.106154
Cu	      6.04489      6.26166      4.19817        -0.028159      0.029902      0.041341
Ni	      4.20606      6.30699     10.54367        -0.027110     -0.016427      0.092763
O	      2.02960      2.18665      1.93874        -0.004010      0.018171     -0.294815
O	      3.89635      4.19817      2.10275        -0.256147     -0.025977      0.006042
O	      3.97041      2.05883      4.28480         0.066002      0.133161     -0.128931
O	      6.14576      4.23140      4.41704        -0.115836     -0.081114      0.243912
O	      6.24835      2.25258      6.34581         0.129980      0.183668     -0.053977
O	      8.14027      4.11817      6.45648        -0.069418     -0.034449      0.015553
O	      2.02849      4.20593      4.20382        -0.001035      0.061332     -0.129369
O	      4.05003      6.26391      4.21641        -0.022317      0.010115      0.009082
O	      4.13373      4.20689      6.51114         0.168655      0.071698      0.045027
O	      6.11975      6.30700      6.43900        -0.096909     -0.155975      0.208246
O	      6.21957      4.21222      8.36758         0.007145     -0.030292     -0.058766
O	      8.21173      6.26315      8.49741        -0.004966     -0.001792      0.024954
O	      2.03611      6.31450      6.30951         0.038228      0.095382     -0.064540
O	      4.03249      8.35700      6.38076        -0.252797     -0.023016     -0.062690
O	      4.08270      6.16478      8.56593        -0.006750     -0.018043     -0.121944
O	      6.21971      8.42437      8.33866         0.048178     -0.002039      0.073080
O	      6.24129      6.30422     10.62653         0.019209      0.007498     -0.002818
O	      8.22027      8.36448     10.63376        -0.008568     -0.069534     -0.024666
