# total energy = -232.90122982 eV
 
CRYSTAL
PRIMVEC
0.005151 6.233272 6.260585 
6.367061 0.000664 6.264974 
4.219921 4.134088 0.025630 
PRIMCOORD
36 1
Li	      0.06206      6.23254      6.26764         0.051503      0.025894      0.017556
Li	      2.15226      8.25437      6.26674         0.039397     -0.006843      0.060065
Li	      6.30981      6.33409      4.30420        -0.019499      0.021294     -0.049950
Li	      4.15751      4.12228      4.27610        -0.022225     -0.034630     -0.016610
Li	      8.31741      6.27171      6.27969        -0.036983     -0.034846     -0.019663
Li	      4.29851      8.25261      4.27598         0.007750      0.007520      0.021003
Li	      6.36381      8.14254      6.18851        -0.012989     -0.054249      0.050611
Li	      4.33140      6.22272      6.16164        -0.016195      0.040230     -0.066501
Li	      6.36763      6.21259      8.22692        -0.053857     -0.017325     -0.018731
Ti	      4.34743      8.35748      8.21179         0.207650      0.045456     -0.534407
Ti	      4.34437      0.04878      4.31360         0.214128      0.227741      0.063103
V	      0.04356      2.06867      2.10679         0.049565      0.156743     -0.090412
V	      4.18286      4.17106      8.26582        -0.144878     -0.029535      0.086337
Cr	      6.30204      4.21432      6.26552         0.089941     -0.356716     -0.173459
Fe	      2.14416      6.26195      8.23299         0.088149     -0.168916     -0.006891
Fe	      2.11866      6.12570      4.31960        -0.069855      0.387252     -0.101078
Cu	      6.36423      2.05755      4.27295        -0.051231     -0.047471      0.021793
Cu	      8.44364      4.16945      8.38117         0.067095      0.219263     -0.019178
O	      2.11506      2.14442      2.14140        -0.157732      0.031244      0.068416
O	      4.28465      4.10489      2.12365         0.039976     -0.068918      0.026466
O	      4.30339      1.96532      4.11047        -0.164441     -0.223738     -0.017581
O	      6.48829      4.04391      4.23042         0.093464      0.101633      0.131912
O	      6.35619      2.11177      6.52638        -0.044324     -0.025454      0.273352
O	      8.39380      4.14326      6.23789        -0.036833      0.012292     -0.214702
O	      2.07719      4.22760      4.09707        -0.013272     -0.280600      0.017064
O	      4.15731      6.22056      4.01307        -0.031419     -0.003750     -0.043047
O	      4.29747      4.14352      6.32534         0.189426      0.077402      0.189636
O	      6.33898      6.11818      6.24916        -0.009142      0.206942     -0.037206
O	      6.23111      4.07175      8.29805         0.039651      0.107809     -0.103101
O	      8.55147      6.26346      8.45887        -0.043203     -0.053158      0.080060
O	      2.13733      6.26413      6.20266        -0.013687     -0.026678     -0.128159
O	      4.20242      8.28870      6.41244        -0.001405      0.015314      0.533100
O	      4.25347      6.27150      8.47500         0.102974     -0.057413      0.158662
O	      6.27912      8.26756      8.25908        -0.258553     -0.134864     -0.137019
O	      6.29981      6.26847     10.49743        -0.191252     -0.127204      0.041490
O	      8.40106      8.34994     10.36320         0.112303      0.068274     -0.062929
