# total energy = -237.82959851 eV
 
CRYSTAL
PRIMVEC
0.011006 6.278087 6.314331 
6.342667 0.000657 6.324640 
4.249283 4.212943 -0.020087 
PRIMCOORD
36 1
Li	      2.19739      8.34185      6.30542         0.109233      0.041062     -0.020514
Li	      6.42119      8.35386     10.54384         0.077657     -0.049634      0.001416
Li	     10.56850      6.31026      8.39358        -0.047259     -0.000118     -0.021516
Li	      2.11989      4.22587      2.15551         0.022760     -0.000315      0.068856
Li	      4.29205      8.39475      4.27055         0.033248      0.028200      0.061441
Li	      2.11836      6.24442      4.21309        -0.054864     -0.049938      0.010703
Li	      6.32313      8.37883      6.24097        -0.003409      0.004398     -0.056077
Li	      4.22854      6.41416      6.25470        -0.006137      0.112706      0.009941
Li	      6.41513      6.31709      8.42561         0.014918      0.018046      0.012491
Ti	      2.04829      6.28517      8.29501         0.044727     -0.044535     -0.388925
Ti	      8.62051     10.39000     10.54493         0.404862     -0.206003     -0.045689
V	      6.21691      6.36965      4.18645         0.038120      0.217555      0.012187
V	      4.31547      4.13600      8.41582        -0.151849      0.004566      0.023571
Cr	      8.45209      6.29792      6.30401        -0.050945     -0.006149      0.036088
Fe	      0.05556      6.27452      6.29789         0.003710      0.037256     -0.040496
Fe	      4.31468      8.36613      8.30860         0.029818     -0.036713      0.108305
Fe	      6.33346      4.13767      6.33484         0.047698     -0.001307      0.025458
Ni	      4.21860      4.19269      4.24839        -0.064845     -0.018041      0.031657
O	      2.11905      2.00771      2.21152        -0.050475     -0.074579      0.015317
O	      4.37532      4.21471      2.19268         0.215447      0.122379     -0.054221
O	      4.11914      2.03803      4.22839         0.004602     -0.118295      0.044971
O	      6.41815      4.31199      4.11961         0.075604     -0.106860     -0.067891
O	      6.22565      2.08481      6.30326        -0.076397     -0.003879      0.004528
O	      8.45553      4.26420      6.18372        -0.019744     -0.003359     -0.082295
O	      2.19734      4.05534      4.16884        -0.167123     -0.047136      0.009615
O	      4.41981      6.23794      4.23881        -0.078209      0.123554     -0.024506
O	      4.19373      4.09222      6.38213        -0.076151     -0.072475      0.028892
O	      6.42048      6.24266      6.19410         0.025757      0.042061     -0.041591
O	      6.11768      4.22352      8.46092         0.059421     -0.032800      0.035299
O	      8.43199      6.42363      8.31186         0.012977     -0.095943      0.034278
O	      2.18805      6.33555      6.43607         0.009223      0.035847      0.378941
O	      4.26836      8.46879      6.34835         0.021851     -0.082091     -0.163839
O	      4.14996      6.22881      8.54030        -0.035714     -0.049019      0.033701
O	      6.53369      8.53282      8.44410        -0.007989      0.132237     -0.001568
O	      6.21265      6.31422     10.46364        -0.388499     -0.027897      0.004523
O	      8.46848      8.49495     10.43596         0.027977      0.207217      0.016949
