# total energy = -240.54334537 eV
 
CRYSTAL
PRIMVEC
-0.012043 6.357156 6.349770 
6.369138 -0.008828 6.346796 
4.235272 4.225393 0.004792 
PRIMCOORD
36 1
Li	      6.33310      6.36439     12.61498        -0.066759     -0.039581     -0.019217
Li	      4.34491      8.36902      8.57542         0.036391     -0.018681     -0.013828
Li	      4.30837      6.39362     10.52591         0.016886     -0.029005     -0.027631
Li	      6.25562      2.05474      4.23059        -0.016954     -0.021326      0.041843
Li	      4.33927      4.09980      4.29583         0.070798     -0.012207      0.011490
Li	      4.26057      2.19178      6.24213         0.021390      0.046304      0.006274
Li	      6.28932      4.21922      6.27315        -0.014811     -0.006799     -0.030114
Li	      8.38581      8.52646      8.50023        -0.015530     -0.017511      0.030043
Li	      6.23317      6.47485      8.52635        -0.051193      0.032658      0.012950
Ti	      6.35755      2.11965      8.32631        -0.162567      0.108984     -0.421518
Ti	      8.51887      4.28653      8.37659        -0.022241      0.126472     -0.405777
V	      6.29363      4.28752     10.56576        -0.141192      0.042838      0.026594
V	      4.25548      6.28817      6.37500         0.068592      0.172710      0.044425
Cr	      6.36966      8.44844      6.37038        -0.166161     -0.067082      0.073353
Fe	      8.47121      8.46499     12.64614        -0.003947     -0.083099     -0.025261
Fe	      6.43960     10.44136      8.57514        -0.096136      0.080691      0.032079
Fe	      2.34368      2.03325      4.29499        -0.175224     -0.073831      0.022350
Fe	      8.38369      6.37273     10.58941         0.084245      0.096831     -0.029163
O	      2.01298      2.17669      2.21036        -0.107374     -0.108203      0.043225
O	      4.14899      4.37632      2.15735        -0.029775      0.103344      0.024778
O	      4.19795      2.09664      4.24007         0.150701      0.021415     -0.022020
O	      6.35011      4.29947      4.14711        -0.025553     -0.010980      0.096443
O	      6.33520      2.13966      6.49205         0.058210     -0.044134      0.434662
O	      8.50626      4.13458      6.55439         0.031626      0.186598      0.410536
O	      2.03020      4.14797      4.22580         0.080753     -0.040857     -0.035508
O	      4.19320      6.43808      4.23543         0.063625     -0.053918     -0.034076
O	      4.11970      4.34127      6.32970         0.051630     -0.066341     -0.042662
O	      6.32980      6.42376      6.28727         0.063090      0.043111      0.046977
O	      6.50430      4.11243      8.48268         0.127578     -0.084508     -0.066448
O	      8.61451      6.21998      8.45205         0.153890     -0.197038     -0.067310
O	      2.11609      6.33924      6.47017        -0.033320     -0.135872      0.027754
O	      4.31099      8.36874      6.30468        -0.012008      0.059403      0.008801
O	      4.14525      6.36629      8.36267         0.130158      0.028123     -0.021558
O	      6.32833      8.52580      8.38061        -0.021247     -0.089447     -0.100224
O	      6.40286      6.26258     10.56512        -0.121823     -0.021371      0.015825
O	      8.56277      8.47070     10.55538         0.074249      0.072311     -0.048085
