# total energy = -243.60510131 eV
 
CRYSTAL
PRIMVEC
-0.041875 6.361941 6.397010 
6.329945 0.002952 6.352018 
4.217472 4.208969 0.004240 
PRIMCOORD
36 1
Li	      4.20714      8.47101      8.43628        -0.004045     -0.061574     -0.007971
Li	      6.33062      6.42133      4.48868         0.090949     -0.007554     -0.007564
Li	      4.16436      4.22884      4.49375         0.017980     -0.007489     -0.117885
Li	      4.00934      2.35897      6.32877         0.001043     -0.021050     -0.026725
Li	      6.08008      4.41603      6.34877        -0.006538      0.009361     -0.033410
Li	      4.27241      8.40859      4.41131        -0.015199      0.031928      0.043890
Li	      2.27329      4.08652      6.25720        -0.087794      0.007406     -0.024184
Li	      4.34399      6.15369      6.27385         0.020986      0.050894     -0.033289
Li	      4.16093      4.25305      8.20590        -0.002200      0.014782      0.035074
Ti	      2.16587      6.25108      8.48049         0.165916     -0.194487      0.107619
Ti	      6.18100      2.14262      4.35666        -0.344987     -0.033758     -0.005916
Ti	      4.17470      6.38187      2.27692        -0.061377      0.158779      0.209257
Mn	      6.20821      6.34322      8.31511        -0.086525     -0.027854     -0.003166
V	      2.09105      6.29612      4.28687        -0.091994      0.064414      0.055004
Cr	      2.11933      8.45369      6.40168        -0.134197      0.113173     -0.011795
Cr	      2.15857      4.19251      2.13991         0.024291      0.002089      0.127964
Co	      8.43028      4.19499      4.31455         0.133953     -0.037077     -0.035711
Cu	      4.15712     10.49179      6.39663         0.021421      0.004608     -0.007157
O	      2.01228      2.10294      2.08130        -0.016092      0.004191     -0.060408
O	      4.25851      4.37825      2.21832         0.039277      0.090350      0.213827
O	      4.35145      2.04239      4.27639         0.248973      0.005770      0.007409
O	      6.33340      4.07413      4.12036        -0.039933     -0.053785     -0.011189
O	      6.40723      2.00038      6.29704         0.062282      0.125667      0.057863
O	      8.50942      4.09162      6.42679        -0.004962     -0.096695     -0.032720
O	      2.08436      4.35884      4.12277        -0.061884     -0.056656     -0.036556
O	      4.10873      6.40926      4.14564         0.026828      0.040213     -0.219309
O	      4.18598      4.25012      6.36624         0.003221     -0.002804     -0.010981
O	      6.28543      6.35659      6.35907         0.039726      0.000776     -0.141096
O	      6.46486      4.07318      8.44655         0.085162     -0.163352     -0.038303
O	      8.56020      6.23660      8.52144         0.163300     -0.044841     -0.037608
O	      2.03462      6.40608      6.47012         0.035644      0.066381      0.136977
O	      4.06257      8.57395      6.41285         0.124142     -0.256798      0.042762
O	      4.01683      6.38491      8.59251        -0.331815     -0.020427     -0.036193
O	      6.26968      8.60897      8.63136        -0.055437      0.209842      0.036478
O	      6.38216      6.49673     10.44724         0.044638      0.124049     -0.184155
O	      8.32078      8.39623     10.75259        -0.004756     -0.038472      0.049167
