# total energy = -243.58832230 eV
 
CRYSTAL
PRIMVEC
0.023886 6.471326 6.230519 
6.313874 0.030953 6.223335 
4.212153 4.312394 0.017573 
PRIMCOORD
36 1
Li	      6.27733      4.41249      2.22345        -0.017983      0.009823      0.009601
Li	      6.25336      2.18535      4.10732         0.017985      0.004872      0.061936
Li	      4.30630      6.47958      2.29150         0.018316      0.024382     -0.130125
Li	      2.14356      4.19756      2.30264         0.028266     -0.045437     -0.098010
Li	      2.04808      2.33504      4.00862         0.032410      0.013401      0.042552
Li	      4.07178      4.45064      4.01551         0.059027      0.011440     -0.039126
Li	      0.19424      4.24547      4.07827        -0.037049      0.010167      0.011123
Li	      2.20517      6.21543      4.07308        -0.002960     -0.016626     -0.015633
Li	      6.34428      6.45775      8.40232        -0.006835     -0.021324      0.093757
Ti	      0.21561      6.56681      6.22228         0.154827      0.306072     -0.043496
Ti	      6.31469      4.42486      6.21879         0.258430     -0.045802     -0.098692
Ti	      8.37207      8.50722      8.46184         0.001851     -0.209826      0.367442
Mn	      4.19114      2.22688      6.17419         0.121902     -0.038425     -0.018847
V	      4.19883      6.51535      6.12058        -0.093437      0.104778      0.123074
Cr	      4.21477      2.18702      2.10110        -0.094157      0.039350     -0.089480
Cr	      4.21762      6.50396     10.33864         0.021947     -0.143597      0.128713
Co	      8.40829      2.21461      6.26327         0.145469     -0.112335      0.059112
Ni	      2.13506      4.30783      6.13026        -0.008427     -0.011582      0.047711
O	      2.23854      2.14239      2.01884        -0.107432      0.055887     -0.480002
O	      4.21370      4.20759      1.92817         0.053145     -0.111780     -0.090841
O	      4.23398      2.02164      4.07395        -0.032995     -0.008175      0.013595
O	      6.37358      4.25714      4.32670        -0.034375      0.034587      0.149877
O	      6.33804      2.09306      6.26849         0.060117     -0.062325      0.057931
O	      8.33511      4.34767      6.17765        -0.111263      0.201100      0.070712
O	      2.14656      4.29131      4.20269        -0.020285     -0.005785     -0.196654
O	      4.21828      6.48911      4.25715         0.000934     -0.000262     -0.050259
O	      4.29359      4.39675      6.29354         0.029870      0.009739      0.044551
O	      6.23832      6.35443      6.26440         0.001288     -0.060162      0.000046
O	      6.16953      4.30982      8.16915        -0.085132      0.011877     -0.058921
O	      8.37998      6.67937      8.34159        -0.022832      0.335218      0.041790
O	      2.10595      6.49584      6.19403        -0.068981     -0.212952     -0.022009
O	      4.24949      8.70521      6.29875        -0.200607     -0.084242      0.011523
O	      4.24008      6.52247      8.30364        -0.029455      0.039775     -0.018150
O	      6.42022      8.65548      8.23118         0.003075     -0.023539      0.038257
O	      6.21369      6.48386     10.56539        -0.005736     -0.012264      0.108984
O	      8.40771      8.77529     10.33315        -0.028919      0.013973     -0.032043
