# total energy = -247.74005116 eV
 
CRYSTAL
PRIMVEC
0.018300 6.406726 6.230203 
6.304151 0.009259 6.239506 
4.224314 4.299164 -0.015594 
PRIMCOORD
36 1
Li	      6.23214      0.11346      6.25526         0.016701      0.028870      0.000750
Li	      8.35473      2.25688      6.25813         0.012113      0.026774      0.048197
Li	      4.14641      2.29405      2.06273        -0.011396      0.012880     -0.051404
Li	      0.02291      2.01870      1.95243        -0.001923      0.009181     -0.047174
Li	      4.19892      4.31019      4.07445        -0.004410      0.047826      0.039911
Li	      4.29998      2.03846      6.21746        -0.016838      0.005069      0.046697
Li	      6.43908      4.13256      6.26172        -0.020972     -0.064582      0.041386
Li	     10.50687      8.61926     10.42218         0.014531      0.023043      0.026209
Li	      8.43866      6.47791     10.41783        -0.015452      0.030544     -0.005149
Ti	      6.25177      6.43617      4.11565        -0.362715      0.042683     -0.144372
Ti	      2.00619      4.34904      6.16863        -0.376244     -0.024098     -0.097297
Ti	      4.39093      4.12211      8.28918         0.133379     -0.190884     -0.132267
Mn	      6.35134      6.38843      8.28373         0.059720      0.104741      0.104840
V	      6.24172      2.15339      4.26355        -0.104639     -0.052923     -0.108547
Cr	      6.24603      4.32258      2.04000        -0.095318     -0.165809      0.175771
Cr	      8.43634      4.30348      4.22426         0.000820      0.056758      0.001553
Co	      2.24379      4.28390      1.96501         0.011375      0.051315      0.036573
Co	      4.23028      6.43895      6.22581        -0.139538      0.038665     -0.048147
O	      2.11978      2.06171      2.19119        -0.011625     -0.034075      0.099434
O	      4.25232      4.29791      2.08285         0.039402     -0.003614     -0.006161
O	      4.19943      2.03221      4.14059        -0.020166      0.052539      0.034489
O	      6.36566      4.38276      4.09876         0.006412      0.054332      0.075708
O	      6.32124      2.18745      6.13130         0.004214     -0.077234     -0.128411
O	      8.41666      4.28479      6.22315        -0.028110      0.001913     -0.078140
O	      2.14498      4.16888      4.20605        -0.028832     -0.092201      0.181627
O	      4.39586      6.41270      4.20254         0.344911     -0.015376     -0.065864
O	      4.10582      4.34589      6.38336         0.057452     -0.048310      0.193297
O	      6.39935      6.59512      6.13201        -0.023367      0.042923     -0.135118
O	      6.25646      4.27732      8.32224        -0.266435     -0.098324     -0.026291
O	      8.46521      6.55376      8.34917         0.085557      0.336596     -0.026378
O	      2.09820      6.27479      6.26955         0.121576     -0.053794     -0.085010
O	      4.37542      8.49216      6.23552         0.407125      0.044878      0.001451
O	      4.11795      6.29362      8.35726        -0.024859     -0.044930      0.116905
O	      6.36926      8.65220      8.26547         0.053757      0.063045     -0.090834
O	      6.20850      6.48442     10.38472         0.094578     -0.076645      0.088671
O	      8.32867      8.65498     10.25705         0.089216     -0.031777     -0.036906
