# total energy = -241.85034714 eV
 
CRYSTAL
PRIMVEC
0.013983 6.302145 6.347944 
6.255555 0.027918 6.334074 
4.180223 4.202446 0.008526 
PRIMCOORD
36 1
Li	      6.17258      4.17389      2.15136        -0.103009      0.026462     -0.061480
Li	      4.24514      8.48297      8.44126         0.026638      0.038823     -0.038817
Li	      4.19098      6.32994     10.45115         0.061418      0.052680      0.050567
Li	      4.16751      6.22829      2.15951         0.000418     -0.059873     -0.034100
Li	      4.18195      4.21716      4.07715        -0.016718     -0.013320     -0.189267
Li	      8.27492      6.40803      6.35991         0.049112      0.005985     -0.028068
Li	      6.25593      4.23402     10.49805         0.015166      0.017047      0.096355
Li	      6.31903      8.33170      6.42482        -0.092521      0.041597      0.018369
Li	      6.21298      6.29564      8.48990         0.079924      0.061842      0.154093
Ti	      2.14690      2.14056      0.14841         0.214500      0.285257      0.101482
Ti	      6.11604      2.20880      4.16653        -0.299709     -0.172875     -0.138261
Ti	      2.10000      6.18547      4.20602        -0.358842     -0.162920     -0.188185
Mn	      6.25982      4.25368      6.40712         0.118842     -0.131866     -0.045161
V	      4.20419      6.29685      6.39071         0.008831      0.084736      0.559207
Cr	      2.10407      2.10685      4.17202         0.082392      0.011115     -0.254049
Cr	      4.22665      4.25601      8.50494        -0.080326     -0.165491      0.173176
Cu	      4.17975      4.20742      0.09434        -0.061081     -0.174185     -0.018404
Ni	      8.34466      4.26906      8.44286         0.123517      0.001433     -0.031503
O	      2.06628      2.10656      2.05899         0.008318     -0.065698     -0.107860
O	      4.10428      4.21865      2.00544         0.082607     -0.006345      0.532897
O	      4.21183      2.10914      4.20789         0.205414      0.049916      0.019454
O	      6.24536      4.19566      4.18772         0.056233     -0.022419      0.025624
O	      6.39989      2.14151      6.17770         0.101816      0.322556     -0.108029
O	      8.36597      4.09106      6.33679        -0.262277     -0.217518     -0.047966
O	      2.09772      4.23988      4.19263         0.009375      0.098188      0.140560
O	      4.19963      6.25940      4.32254        -0.127212      0.038739      0.005536
O	      4.14096      4.27271      6.50851         0.010095      0.228685     -0.004185
O	      6.26559      6.36222      6.13865        -0.426646      0.080001      0.127791
O	      6.24271      4.24480      8.51455        -0.180774      0.011603     -0.083142
O	      8.36130      6.38139      8.62439         0.001446      0.147405      0.224410
O	      2.14111      6.40030      6.23473         0.679091      0.090292     -0.144908
O	      4.09127      8.30037      6.34251        -0.284525     -0.458078     -0.182955
O	      4.21319      6.24177      8.38890         0.006240     -0.180720     -0.361437
O	      6.34901      8.40185      8.63492         0.083810      0.035209      0.251147
O	      6.40270      6.42807     10.69775         0.300494      0.146211     -0.399453
O	      8.31437      8.33464     10.59137        -0.032055     -0.044474     -0.013437
