# total energy = -247.01385840 eV
 
CRYSTAL
PRIMVEC
0.032994 6.204358 6.275458 
6.319819 0.033368 6.276155 
4.237226 4.161272 -0.002421 
PRIMCOORD
36 1
Li	      6.28146      0.07791      6.26614        -0.000627     -0.014314      0.011684
Li	      8.36902      2.15845      6.26645         0.040794      0.037278      0.018352
Li	      8.42710      4.22961      4.37070        -0.014959      0.039334      0.028909
Li	      6.36434      6.19515      4.30051         0.030348     -0.042422     -0.039495
Li	      8.40793      6.15551      6.24940        -0.001257      0.030373     -0.024086
Li	      6.47592      4.24648      6.20686        -0.005244      0.034557     -0.034283
Li	      2.15288      6.24153      4.29839        -0.015875      0.037201      0.087125
Li	      4.31185      6.25210      6.26930         0.009896     -0.028930      0.015834
Li	      6.33266      6.24086      8.22733        -0.024287     -0.017717     -0.027763
Ti	      4.21826      4.19734      4.27568         0.144168     -0.179616      0.124155
Ti	      6.31439      4.30627     10.52756        -0.047444      0.502157      0.263576
Ti	      4.20576      4.21527      8.31603        -0.014951      0.168692     -0.051742
Mn	      6.35460      8.25044      6.26175         0.000869     -0.030016     -0.044727
V	      8.41928      4.23372      8.25424        -0.011658     -0.031604     -0.208946
Cr	      6.34430      2.05559      4.29427        -0.029777     -0.011123     -0.038109
Cr	      6.34534      2.09454      8.27759         0.074151      0.020088     -0.126336
Fe	      2.16610      6.23880      8.29622        -0.012840      0.071613      0.110775
Co	      4.23333      8.22432      8.32082        -0.037057     -0.064107      0.103427
O	      2.08107      2.16553      2.07644        -0.031537      0.073845      0.016416
O	      4.17901      4.20727      2.17668        -0.008523     -0.037728      0.000069
O	      4.32759      2.20442      4.14945        -0.005229      0.162914     -0.074962
O	      6.21056      4.08003      4.16153        -0.113060     -0.029909      0.026822
O	      6.37723      2.08648      6.25967        -0.037477      0.046462      0.127146
O	      8.43416      4.20402      6.35909         0.053847     -0.020717      0.129073
O	      2.08659      4.16434      4.08482        -0.045988      0.017999     -0.011510
O	      4.25659      6.17333      4.06801        -0.028277      0.036528      0.001051
O	      4.19303      4.18735      6.26379         0.036126     -0.038006     -0.020414
O	      6.36828      6.37226      6.25189        -0.026087      0.089799      0.006175
O	      6.27677      4.11642      8.42946         0.004314     -0.057307      0.067461
O	      8.57498      6.30660      8.33557        -0.006280      0.042765      0.020058
O	      2.12562      6.02855      6.32809        -0.018487     -0.118199     -0.139237
O	      4.29161      8.24554      6.16916         0.018924      0.025893     -0.190746
O	      4.28585      6.10753      8.37990         0.023576     -0.183717     -0.073874
O	      6.43427      8.22310      8.51666         0.026535     -0.014945     -0.019382
O	      6.35126      6.17278     10.47674        -0.000099     -0.510448      0.012957
O	      8.52972      8.30424     10.39731         0.073471     -0.006672     -0.045455
