# total energy = -245.62543861 eV
 
CRYSTAL
PRIMVEC
0.098365 6.435235 6.285774 
6.423628 0.087236 6.296823 
4.329267 4.344005 0.010881 
PRIMCOORD
36 1
Li	      6.42670      0.15602      6.30685        -0.024026     -0.009224     -0.013734
Li	      6.56834      8.60062     10.48697        -0.029456     -0.057949      0.028045
Li	      8.63335      4.56547      8.34595        -0.018537      0.003105     -0.056875
Li	      4.30157      4.33088      4.27275        -0.034393     -0.028840      0.008033
Li	      8.65732      6.64777      6.46146        -0.014950     -0.016402     -0.043255
Li	      8.60870      6.56569     10.37823        -0.046158      0.002506      0.054216
Li	      2.33859      4.31540      6.35847        -0.024943     -0.020567     -0.054535
Li	      8.52267      8.47582      8.31974        -0.011350     -0.021046      0.040152
Li	      6.70244      6.60896      8.34904        -0.039557     -0.043108     -0.017301
Ti	      4.40029      6.50051     10.46481         0.158953     -0.008809      0.049052
Ti	      2.21736      2.22324      4.22496         0.103265      0.168426      0.137307
Ti	      6.55857      4.46624     10.39334         0.084920      0.198370     -0.181198
Mn	     10.62901      6.47685      8.37588        -0.095178     -0.067915     -0.037060
V	      4.49459      8.70723      8.39945        -0.527500     -0.375132     -0.165736
Cr	      8.55995      2.27019      6.29829         0.228641      0.020082      0.154583
Cr	      4.38449      6.43094      6.32793         0.005778      0.245638      0.132381
Fe	      6.46546     10.67537      8.32298         0.262004      0.312216     -0.037655
Cu	      6.40299      4.31287      6.34043        -0.018369     -0.028325      0.037271
O	      2.25185      2.21112      2.10834        -0.218111     -0.141668      0.119383
O	      4.25229      4.20679      2.10643         0.116010      0.519897      0.023649
O	      4.22479      2.11317      4.19845        -0.293410     -0.178956      0.330475
O	      6.64039      4.55007      4.04981         0.081044      0.105251     -0.170642
O	      6.56782      2.29648      6.24695         0.070044     -0.051090     -0.003733
O	      8.48110      4.31707      6.14197         0.072072     -0.022689     -0.272987
O	      2.08706      4.17834      4.26897        -0.149096     -0.304734      0.021782
O	      4.50580      6.59671      4.28791         0.201705      0.002306      0.056682
O	      4.42436      4.45519      6.28805        -0.070130      0.074985      0.018885
O	      6.44638      6.41573      6.16269        -0.042091      0.096989     -0.373449
O	      6.48965      4.34895      8.61020         0.072297      0.023204      0.518972
O	      8.61419      6.53262      8.42687         0.016774      0.001714      0.005260
O	      2.35568      6.58949      6.28090         0.056414     -0.052616      0.054779
O	      4.30880      8.53901      6.30929        -0.122437     -0.135399     -0.416659
O	      4.41247      6.60867      8.41649        -0.149499     -0.239426      0.071837
O	      6.40405      8.59552      8.40999         0.595705      0.087049     -0.013802
O	      6.38477      6.40363     10.55200        -0.235208     -0.242157     -0.008612
O	      8.80347      8.83289     10.56058         0.038775      0.184311      0.004487
