# total energy = -245.39790025 eV
 
CRYSTAL
PRIMVEC
-0.005844 6.343237 6.340905 
6.395293 0.000255 6.335059 
4.262549 4.223981 0.001076 
PRIMCOORD
36 1
Li	      2.18181      2.18731      0.16147         0.024225      0.008991     -0.005237
Li	      6.22812      4.39750      2.21075        -0.005270      0.000967      0.011894
Li	      4.07171      2.25954      2.10209        -0.068026     -0.000221      0.032417
Li	      8.37259      4.28474      4.35160        -0.004192     -0.001811     -0.027391
Li	      2.28650      4.06689      2.05857         0.022482     -0.003726     -0.041522
Li	      4.36336      4.16216      4.04067        -0.007643      0.005033     -0.036569
Li	      6.54174      4.16371      6.21971         0.000325     -0.059025      0.027745
Li	      4.27306      8.39536      4.31567         0.009921      0.019919      0.028215
Li	      4.22577      6.43963      6.32449         0.017535      0.019524      0.001780
Ti	      2.30265      6.23624      4.28498         0.389769     -0.162221      0.263116
Ti	      4.27589      4.29503      8.44036         0.122147      0.312847     -0.084248
Ti	      6.34313      6.26918      8.49006        -0.277696     -0.229806      0.092138
Mn	      4.17100      4.15288      0.07407         0.046482     -0.056947     -0.046441
V	      6.30571      8.46120      6.35380        -0.072856      0.061839      0.032039
Cr	      6.35331      2.20135      4.23235        -0.175672     -0.008764      0.020488
Cr	      8.53674      6.29392      6.32602        -0.067795      0.019466     -0.128275
Fe	      2.15489      2.03329      4.16126        -0.087559     -0.185439     -0.245781
Ni	      0.12803      2.03531      2.06068        -0.076611      0.119934     -0.049348
O	      2.09845      2.13036      2.10551         0.076683      0.122617      0.167829
O	      4.27250      4.27528      2.11117        -0.024720     -0.130818      0.032826
O	      4.30472      2.13419      4.33438         0.491355     -0.033476      0.088765
O	      6.39113      4.16031      4.21961         0.031699      0.152990      0.069442
O	      6.27938      2.13554      6.25464         0.044164      0.041791     -0.099026
O	      8.49560      4.33856      6.32837        -0.062080     -0.003861     -0.005091
O	      2.09714      4.34549      4.25661         0.046146      0.068841      0.049225
O	      4.16693      6.36390      4.16797        -0.566205      0.008189      0.013730
O	      4.12564      4.15686      6.52828         0.068862     -0.008347      0.192795
O	      6.47845      6.40846      6.46190        -0.020781      0.000381      0.101493
O	      6.23329      4.33089      8.46689        -0.106063      0.175992      0.009855
O	      8.46187      6.41434      8.44648        -0.019662      0.021051      0.043852
O	      2.18347      6.27441      6.17119         0.051389      0.040813     -0.273769
O	      4.38659      8.41363      6.33022        -0.027842     -0.007118     -0.012331
O	      4.42954      6.21705      8.45600         0.207539     -0.260586      0.026752
O	      6.49162      8.34363      8.49019         0.021657     -0.026632      0.016978
O	      6.53215      6.42171     10.40167        -0.019732      0.029899     -0.175029
O	      8.41698      8.32016     10.42077         0.018025     -0.052283     -0.093319
