# total energy = -248.75141297 eV
 
CRYSTAL
PRIMVEC
0.024339 6.383630 6.305335 
6.220571 0.039842 6.289479 
4.168296 4.266199 0.005468 
PRIMCOORD
36 1
Li	     10.26912      4.24074      6.25285        -0.029173     -0.050461     -0.007068
Li	      8.43195      8.62181     12.51978         0.056617      0.028495     -0.021332
Li	      4.11205      2.11798      2.17138        -0.013970     -0.025158     -0.010305
Li	      8.33442      4.39346      4.32001        -0.014052     -0.008664      0.014345
Li	      2.20866      2.12636      4.22418         0.073057      0.006191     -0.026743
Li	      4.18062      4.16593      4.27330         0.009691     -0.001136     -0.005157
Li	      4.14241      2.13167      6.14689        -0.009697      0.001159      0.089673
Li	      4.13743      8.52220      4.28331        -0.024724     -0.016324     -0.067091
Li	      4.18663      6.45488      6.20656         0.000013      0.024528     -0.083345
Ti	      2.21888      6.31798      8.37805         0.034319      0.088360      0.018139
Ti	      4.26072      6.32737      2.13174         0.187229     -0.269808      0.253718
Ti	      1.99478      4.28281      6.21799        -0.355469      0.090414     -0.090368
Mn	      6.14464      2.14952      4.25301         0.073052      0.032783      0.005676
V	      6.24318      4.33929      6.25672         0.066851      0.031023      0.050229
Cr	      2.08774      6.39056      4.25910         0.035673      0.027174      0.082168
Cr	      6.20586      6.42452      8.39800        -0.051278     -0.042601      0.047905
Fe	      2.17233      4.18465      2.09434         0.043317      0.005811      0.161679
Fe	      4.15611      4.30899      8.38636         0.056213     -0.045012      0.144377
O	      2.01588      2.00576      2.14938        -0.245765     -0.099095     -0.030468
O	      4.31371      4.40197      2.05108         0.110770      0.261239      0.048115
O	      4.27460      2.15881      4.18397         0.000813     -0.040207      0.032644
O	      6.25525      4.17033      4.16241        -0.000281     -0.047083     -0.217327
O	      6.16462      2.31587      6.47718         0.026425      0.090756      0.018451
O	      8.22391      4.28304      6.37149        -0.099585     -0.002204     -0.144604
O	      2.12913      4.32090      4.23518        -0.028976      0.075323      0.136169
O	      4.07774      6.46761      4.03917         0.002874     -0.028796     -0.229587
O	      4.14708      4.31357      6.33907         0.000908     -0.013306     -0.112365
O	      6.24308      6.42774      6.36422        -0.000921     -0.085158     -0.060368
O	      6.25046      4.36742      8.37914        -0.009148      0.009176     -0.042209
O	      8.27921      6.40356      8.52874         0.038760      0.020902     -0.021021
O	      2.12675      6.32854      6.29250        -0.015116     -0.075161      0.006249
O	      4.32162      8.55253      6.26686         0.362653     -0.020189      0.011777
O	      4.15074      6.42667      8.39775        -0.135212      0.076392     -0.006582
O	      6.20474      8.47614      8.29641        -0.105907      0.027649     -0.026805
O	      6.27101      6.50091     10.42400         0.017323      0.023825     -0.036784
O	      8.17160      8.43537     10.47542        -0.057286     -0.050837      0.118214
