# total energy = -241.71650241 eV
 
CRYSTAL
PRIMVEC
0.015543 6.296420 6.254470 
6.363089 0.003012 6.266822 
4.243262 4.207211 0.000680 
PRIMCOORD
36 1
Li	      6.33437      4.30972      2.16276         0.030532      0.038134     -0.006311
Li	      6.24956      2.22825      4.22392        -0.066034      0.013136     -0.000172
Li	      0.12857      2.05573      2.04203         0.051531      0.053290      0.028446
Li	      2.18188      4.09662      2.02561        -0.029957     -0.030475      0.023971
Li	      6.47238      6.20554      4.32008         0.026145      0.000334     -0.027063
Li	      8.31693      6.28418      6.21209        -0.030292     -0.028144      0.049594
Li	      6.37143      8.15874      6.27249         0.004318     -0.028122     -0.006080
Li	      4.43825      6.30933      6.27026        -0.003480     -0.026767      0.018867
Li	      6.37419      6.30456      8.16814         0.003047     -0.009935      0.035637
Ti	      0.09543      4.11375      4.07840         0.117915     -0.090772     -0.263858
Ti	      8.47209      6.29151     10.40381         0.052554     -0.160665     -0.119558
Ti	      4.07319      4.26347      8.18192        -0.316813      0.100164     -0.262715
Mn	      4.28084      8.32658      8.34807         0.012321     -0.060540     -0.033108
V	     10.58698      4.30017      6.35671         0.010647     -0.004493      0.065759
Cr	      8.45519      2.13884      6.29563        -0.011767     -0.059398      0.101278
Cr	      4.32006      4.16622      4.17621        -0.031304      0.030071     -0.048459
Ni	      8.39637      4.29079      4.19382        -0.005607      0.064928     -0.030348
Ni	      6.38975      4.27753      6.28952        -0.088291     -0.117116      0.113930
O	      2.14874      2.10890      1.95988        -0.003870     -0.009001     -0.044116
O	      4.24251      4.22486      2.11843        -0.000851     -0.008353      0.114422
O	      4.26696      2.18697      4.19939        -0.006754      0.078928      0.030243
O	      6.28879      4.20613      4.23475        -0.096184     -0.005489     -0.115002
O	      6.46404      2.04505      6.26960         0.081472      0.139084     -0.062590
O	      8.49038      4.15857      6.21165         0.102962     -0.007046      0.147059
O	      2.08263      4.31054      4.15204        -0.122399      0.173861     -0.006663
O	      4.13240      6.34419      4.20340        -0.111248      0.109945     -0.060386
O	      4.26098      4.20775      6.28487        -0.084907     -0.003788      0.250521
O	      6.36070      6.25436      6.27482        -0.024945      0.178300     -0.010786
O	      6.29508      4.18825      8.49101         0.006192      0.002601      0.335994
O	      8.47907      6.47738      8.51981        -0.063631      0.117851      0.216879
O	      2.06784      6.41653      6.10087         0.042904      0.062650     -0.036946
O	      4.18796      8.49904      6.12097        -0.040891     -0.092955     -0.078442
O	      4.25937      6.15581      8.45018        -0.010654     -0.276700     -0.161252
O	      6.50041      8.40092      8.32516         0.335823      0.042075     -0.018062
O	      6.44707      6.17386     10.52269         0.206911     -0.116051     -0.078950
O	      8.61554      8.35697     10.42658         0.064604     -0.069540     -0.061731
