# total energy = -101.97148409 eV
 
CRYSTAL
PRIMVEC
0.000507 2.138229 2.137457 
5.762020 0.143118 -2.281308 
-1.929717 7.210881 -5.068820 
PRIMCOORD
16 1
Li	      0.01945      2.54691      1.72647         0.014016     -0.007364      0.005924
Li	      1.98758      2.67866     -0.54120         0.029223     -0.011104      0.006691
Li	      3.81856      2.81019     -2.80526        -0.013711     -0.011809      0.003637
Li	      1.99610      4.39419     -2.25600         0.023977      0.007486      0.000044
Ti	     -0.06789      6.94925     -2.65927         0.004941     -0.047293      0.053067
Ti	      1.85774      7.21670     -5.07933         0.059435      0.158839     -0.152942
Ni	      0.07365      4.34067     -0.06805        -0.063057      0.079473     -0.062638
Ni	      3.81819      4.73643     -4.73046        -0.041563      0.012538     -0.028729
O	      3.89879      4.88081     -2.73757        -0.112622     -0.113045      0.102038
O	      3.77603      1.90033      0.23464        -0.019267     -0.166608      0.174060
O	      1.83518      7.24398     -2.96295        -0.244516      0.032414     -0.033517
O	      1.97330      2.46079     -2.46129         0.187871      0.028914     -0.023883
O	      3.77131      6.95428     -4.81417         0.025522      0.078555     -0.071545
O	     -0.07501      6.87316     -4.73194         0.077581     -0.058826      0.048910
O	      0.10205      5.00432     -2.85787         0.061130      0.119470     -0.139334
O	     -0.03679      2.32854     -0.19385         0.011041     -0.101638      0.118218
