# total energy = -250.83159235 eV
 
CRYSTAL
PRIMVEC
0.094327 6.396827 6.159795 
6.388353 0.117670 6.137833 
4.321822 4.313010 0.014562 
PRIMCOORD
36 1
Li	      2.16461      2.09968      0.10119        -0.014516     -0.054410      0.016068
Li	      2.29122      0.24972      2.03098        -0.018533      0.002635     -0.098548
Li	      4.08813      2.05299      2.06275        -0.012741      0.085589     -0.028622
Li	      0.18944      2.24039      2.04056         0.022331     -0.033339     -0.036522
Li	      2.14332      2.10250      3.98917        -0.025513      0.010217      0.034293
Li	      6.41605      4.35479      6.20779        -0.051739     -0.003153      0.045002
Li	     10.65955      8.58691     10.22061        -0.068940     -0.089833      0.019929
Li	      4.32326      6.47054      6.22911        -0.024256     -0.014267     -0.107809
Li	      4.42764      4.40946      8.22258        -0.019140     -0.020745     -0.051016
Ti	      4.30195      4.28449      0.11107         0.242882     -0.133493      0.180241
Ti	      4.42017      4.41367      4.02905        -0.275752      0.262948     -0.377763
Ti	      6.49081      8.59505      6.26622        -0.093433      0.084787     -0.082225
Mn	      2.08582      4.11178      2.09013         0.083616     -0.006410      0.046127
V	      6.37714      6.41291      8.18579         0.327320     -0.003237      0.006196
Cr	      6.54998      8.66552     10.23010        -0.058531     -0.041526     -0.038658
Cr	      4.30591      2.24495      6.15075        -0.022769      0.041490      0.146275
Cr	      8.65043      6.57647     10.23299         0.065523     -0.161091      0.010340
Co	      8.59733     10.74118     10.23123         0.224587      0.029758     -0.056687
O	      2.15776      2.12972      2.03857         0.041027     -0.164513      0.037278
O	      4.34778      4.33378      2.03221         0.066132      0.068032      0.390668
O	      4.39988      2.36203      4.14719         0.060102     -0.343401     -0.096219
O	      6.32450      4.29043      4.13357         0.457384     -0.106018      0.024274
O	      6.32144      2.13289      6.08131         0.010878      0.136248      0.025882
O	      8.73110      4.52344      6.10986        -0.431617      0.062765     -0.376170
O	      2.33512      4.40952      4.21427        -0.000952      0.098733      0.020411
O	      4.27207      6.32141      4.13486        -0.076477     -0.034867     -0.019396
O	      4.21655      4.26021      6.07795         0.087937      0.006997      0.065635
O	      6.57463      6.62585      6.11931         0.035827     -0.041396     -0.041643
O	      6.40612      4.46373      8.19958        -0.158626     -0.007767      0.040037
O	      8.47623      6.50276      8.19452         0.014216      0.073870      0.068429
O	      2.13154      6.31221      6.12256         0.153301     -0.028734     -0.004242
O	      4.54224      8.73657      6.12234        -0.004478     -0.032502     -0.032703
O	      4.44064      6.48897      8.16914        -0.294383     -0.044023      0.478509
O	      6.53372      8.54226      8.17858        -0.002614     -0.007095      0.102016
O	      6.60591      6.62525     10.30034        -0.273739      0.029377     -0.282569
O	      8.53743      8.55014     10.30629         0.035685      0.378374     -0.026818
