# total energy = -249.19245654 eV
 
CRYSTAL
PRIMVEC
-0.008252 6.343651 6.351223 
6.355444 0.014152 6.329102 
4.230954 4.208036 0.015312 
PRIMCOORD
36 1
Li	      4.17689      4.22395      0.11399         0.004991     -0.022619     -0.012962
Li	      2.13097      2.12351      0.04834         0.060128     -0.028274     -0.039427
Li	      6.18585      4.33092      2.24339        -0.095344     -0.005682      0.052196
Li	      0.15845      2.01328      2.05502         0.012510     -0.037558     -0.018441
Li	      2.15050      2.06862      4.13603        -0.016115      0.048714      0.027258
Li	      4.27253      4.22522      4.17040        -0.053967      0.010444     -0.075030
Li	      4.22486      8.42330      4.26955         0.042574     -0.031115      0.020876
Li	      2.11372      4.23383      6.29465        -0.069206      0.011676      0.021690
Li	      8.46484      8.42710      8.47324        -0.029748     -0.025582      0.008977
Ti	      2.18043      6.32378      4.28271         0.015919      0.031250      0.099782
Ti	      4.20281      6.35445      6.28465        -0.103896      0.287700      0.053918
Ti	      6.26612      6.33181      8.57175        -0.186351      0.102318      0.125573
Mn	      6.40768      2.22909      4.23575         0.001283     -0.065912     -0.058821
V	      4.17531      2.10209      2.17220         0.088703      0.124791     -0.124659
Cr	      2.14056      4.21489      2.13786         0.097954     -0.121778      0.052340
Cr	      4.22411      2.18620      6.29428        -0.079576     -0.006557     -0.030503
Cr	      6.34050      4.24415      6.32560         0.043356      0.007009      0.013149
Cu	      8.43833     10.46108     10.57099         0.046341     -0.065898     -0.146730
O	      2.19827      2.19730      2.11086         0.009476      0.060798     -0.016637
O	      4.14780      4.14698      2.08720        -0.030181      0.197680      0.038468
O	      4.22923      2.15584      4.25240        -0.053357      0.029275      0.074067
O	      6.31653      4.30415      4.34419         0.038323      0.068766     -0.021024
O	      6.20451      2.23246      6.38216         0.066267      0.048030      0.056974
O	      8.37767      4.36529      6.45068         0.015583      0.029002     -0.032886
O	      2.12043      4.38252      4.13368        -0.014965      0.174844      0.039917
O	      4.15533      6.34747      4.36268        -0.056087      0.010448      0.149497
O	      4.30985      4.26588      6.37356        -0.029226      0.000111     -0.015141
O	      6.33006      6.30642      6.42594         0.025867     -0.067073     -0.014901
O	      6.42730      4.35986      8.38494        -0.057404      0.074027      0.006971
O	      8.34045      6.30381      8.42220         0.020104      0.024655      0.046447
O	      2.26229      6.28084      6.21744         0.090333      0.026043     -0.118573
O	      4.23404      8.25714      6.46217         0.007359     -0.275614     -0.061738
O	      4.32372      6.30359      8.31386         0.020179     -0.169475     -0.063904
O	      6.24522      8.28415      8.44615        -0.045715     -0.221620     -0.044637
O	      6.49418      6.29466     10.47545         0.087343     -0.040484     -0.012232
O	      8.50094      8.25373     10.51341         0.126541     -0.182339      0.020148
