# total energy = -248.12678851 eV
 
CRYSTAL
PRIMVEC
0.017997 6.526696 6.172097 
6.347419 -0.002429 6.192909 
4.219455 4.354366 0.010371 
PRIMCOORD
36 1
Li	      6.04400      0.30757      6.15317        -0.016612      0.025980     -0.020844
Li	      8.31882      2.34657      6.14250        -0.016077      0.017993      0.014183
Li	      8.35820      4.45030      4.23197         0.058385      0.021751      0.094206
Li	      6.31659      2.26213      4.22818        -0.050259      0.002665      0.062701
Li	      8.41838      4.42707      8.16004        -0.014444      0.017047     -0.015030
Li	      6.46691      6.37270      4.13728        -0.025254      0.018941     -0.011169
Li	      4.26502      4.26136      4.17229        -0.037628     -0.003310     -0.013157
Li	      4.29615      2.01843      6.05138        -0.023215      0.010944      0.005328
Li	      2.21294      4.30835      6.12344        -0.002121     -0.014461     -0.006931
Ti	      4.12539      2.36359      2.12073        -0.130764      0.191424      0.367241
Ti	      2.02647      6.44458      4.20778        -0.126447     -0.208141     -0.083782
Ti	      4.32512      6.48785      6.10579         0.224508     -0.041627     -0.212535
Mn	      4.24481      8.72954      4.21581         0.021228      0.004843     -0.046522
V	      8.41858      8.67905      8.29681         0.191445     -0.127361     -0.049839
Cr	      6.35325      4.34364      2.10871        -0.210720      0.176814      0.026649
Cr	      6.40817      4.26136      6.12819        -0.057464      0.025144      0.021365
Cr	      6.35932      6.57434      8.27099        -0.007555     -0.148128     -0.024774
Ni	      0.03589      2.15043      2.02705        -0.002996     -0.093322      0.060897
O	      2.22218      2.07850      2.06289         0.229957     -0.060439     -0.017797
O	      4.30742      4.26471      1.99990         0.065908     -0.255460     -0.015584
O	      4.24879      2.16953      3.93433        -0.028134      0.035934     -0.368972
O	      6.32941      4.35516      4.09407         0.029314     -0.019462     -0.036298
O	      6.31209      2.27820      6.24184         0.002389     -0.027311     -0.254278
O	      8.34875      4.36107      6.18023         0.065651     -0.025115      0.031521
O	      2.14756      4.57224      4.11138         0.010140      0.244367      0.016702
O	      4.18656      6.50891      4.18711        -0.010237     -0.025655      0.274099
O	      4.30042      4.48377      6.25335        -0.041792      0.139902     -0.016063
O	      6.26998      6.40314      6.21273        -0.149234     -0.012807     -0.066012
O	      6.25043      4.23101      8.19712         0.006272      0.100031     -0.027513
O	      8.44994      6.58622      8.38295        -0.078073      0.010437      0.063472
O	      2.30272      6.50471      6.16505         0.026698     -0.016860     -0.006571
O	      4.34996      8.42805      6.32952         0.016050     -0.092205      0.071772
O	      4.22171      6.49744      8.19416        -0.023452      0.005069      0.027864
O	      6.37815      8.84177      8.22602        -0.003963      0.116317      0.000067
O	      6.46937      6.54270     10.33144         0.160699      0.018570      0.078975
O	      8.49397      8.51650     10.25950        -0.052205     -0.012511      0.076630
