# total energy = -253.53784891 eV
 
CRYSTAL
PRIMVEC
-0.007701 6.284581 6.210737 
6.644288 0.043488 6.158597 
4.501205 4.224532 -0.039793 
PRIMCOORD
36 1
Li	      0.33207      6.24537      6.21341        -0.013416      0.067706      0.032978
Li	      2.27067      8.23886      6.17485         0.050113     -0.001064     -0.030547
Li	      2.19187      6.45461      8.08774         0.041317     -0.028863      0.009954
Li	      9.01024     10.39553     10.27082        -0.020503      0.034925      0.031539
Li	      0.24544      2.01415      2.01790         0.072861      0.031814     -0.017290
Li	      6.64955      6.34477      4.04867         0.018803      0.013871      0.071843
Li	      2.16875      6.40852      4.30623         0.005790     -0.058224      0.073342
Li	      2.03600      4.48376      6.16302        -0.003874     -0.076412      0.009227
Li	      4.16793      6.36714      6.20582        -0.051606      0.021411      0.002264
Ti	      4.36496      4.41154      4.10627        -0.085787      0.179446     -0.008753
Ti	      6.76449      4.18722      6.08436         0.074207     -0.017972     -0.244972
Ti	      6.58893      6.35405      8.23512        -0.149727      0.141573     -0.066515
Mn	      4.43306      2.06218      6.10692         0.009507      0.029536     -0.007705
V	      4.37623      8.39846      8.15520         0.005134     -0.023049      0.026455
Cr	      6.69362      8.39495     10.30680        -0.021760      0.026244      0.029874
Cr	      4.44803      8.33937      4.20813         0.046552      0.042588      0.008365
Cr	      2.27471      4.20248      2.09265         0.054182     -0.013190     -0.011453
Cr	      8.86552      8.44289      8.17450        -0.027848      0.017159     -0.053559
O	      2.41976      2.21968      2.10645        -0.036620      0.000830      0.000696
O	      4.35112      4.24403      2.13130        -0.090644      0.028268      0.061289
O	      4.63310      2.25539      4.00882         0.030567      0.004322      0.001029
O	      6.59985      4.17704      4.17399        -0.046361     -0.044208      0.234792
O	      6.62978      2.23452      6.12806         0.051386      0.102459     -0.043033
O	      8.67266      4.19440      6.21438        -0.171976     -0.033620      0.018402
O	      2.49671      4.20656      4.11075         0.134923      0.046971     -0.032609
O	      4.56362      6.25707      4.06844        -0.022898     -0.288648      0.024018
O	      4.64464      4.21713      6.10768         0.040613      0.074680     -0.033413
O	      6.69270      6.13848      6.26443         0.028029     -0.084412      0.101193
O	      6.85465      4.25135      8.26809        -0.014093     -0.004322     -0.061340
O	      8.64696      6.32422      8.20783        -0.045639     -0.073150     -0.002559
O	      2.23520      6.32278      6.23703        -0.002542      0.007936     -0.044485
O	      4.49982      8.44060      6.21189        -0.025129      0.002802      0.012779
O	      4.64321      6.27312      8.23936         0.162776      0.012621     -0.054015
O	      6.52197      8.28542      8.27695         0.004685     -0.154344      0.022539
O	      6.60643      6.31964     10.21139         0.032725      0.042694     -0.105222
O	      8.67945      8.45056     10.18283        -0.033748     -0.028377      0.044890
