# total energy = -250.99960598 eV
 
CRYSTAL
PRIMVEC
-0.047885 6.340610 6.384888 
6.336943 -0.007960 6.345651 
4.224163 4.199840 -0.004639 
PRIMCOORD
36 1
Li	      8.41289      8.41857     12.64985         0.033321     -0.040114     -0.009739
Li	      4.22102      6.30892     10.56357         0.005723     -0.039227     -0.043236
Li	      4.22190      6.30635      2.31070         0.019310     -0.047920      0.044499
Li	      6.15516      6.37864      4.25323        -0.045153      0.019293      0.011776
Li	      4.18837      4.33055      4.28059        -0.005322      0.016854      0.009749
Li	      4.18217      8.26070      4.33649         0.001777      0.003021      0.044496
Li	      6.26617      8.36318      6.34640        -0.017932      0.013310      0.014610
Li	      4.22898      6.42018      6.25891        -0.014929      0.042142      0.039187
Li	      6.26324      6.35263      8.46729         0.005866      0.013695      0.001032
Ti	      4.22457     10.39045      6.32853         0.299227     -0.489586     -0.085659
Ti	      2.04606      4.15008      2.22776        -0.065951     -0.012233      0.554029
Ti	      6.28429      4.28819      6.24908        -0.170832      0.254181     -0.151865
Mn	      2.22306      6.33283      4.29282        -0.035221     -0.034897      0.033517
Mn	      4.24661      4.24773      8.53568         0.019932      0.004873      0.001526
V	      2.13695      0.07549      2.14868        -0.170499      0.046900     -0.062400
Cr	      6.33876      2.09421      4.24472         0.064043      0.032984     -0.251346
Cr	      4.22913      2.07792      6.30578        -0.168111      0.141878     -0.028647
Co	      4.20557      2.06274      2.20182         0.037154      0.041082     -0.026336
O	      2.10358      2.15801      2.11956        -0.014199      0.069101      0.011423
O	      4.17224      4.22301      1.99009        -0.038073      0.052262     -0.032309
O	      4.32638      2.10492      4.28876         0.013673     -0.024666      0.133763
O	      6.35805      4.13783      4.31255         0.041265      0.025246      0.192472
O	      6.25158      2.13030      6.25763         0.073353     -0.042636      0.046150
O	      8.44628      4.24899      6.40082         0.017266     -0.084542     -0.009965
O	      2.07340      4.21816      4.06993        -0.014385     -0.103918     -0.444726
O	      4.22095      6.32057      4.29347         0.089212     -0.028083     -0.006417
O	      4.37629      4.11013      6.38024         0.172607     -0.014443     -0.063359
O	      6.41329      6.17112      6.32223         0.027193     -0.204158      0.012091
O	      6.46608      4.16930      8.27785         0.110957     -0.002499     -0.029520
O	      8.41957      6.16739      8.34789         0.018504     -0.084997     -0.083530
O	      1.89524      6.34806      6.48238        -0.230660      0.005662     -0.028206
O	      4.17577      8.55313      6.39624        -0.052300      0.441379     -0.053219
O	      4.05446      6.37451      8.45870         0.124179     -0.002576     -0.005461
O	      6.25244      8.56461      8.59717        -0.046478     -0.020074      0.042977
O	      6.29060      6.40815     10.76893        -0.076069     -0.025672      0.138668
O	      8.30511      8.43311     10.60624        -0.008446      0.078379      0.083972
