# total energy = -246.43854925 eV
 
CRYSTAL
PRIMVEC
-0.031324 6.334108 6.383640 
6.392654 -0.006883 6.359754 
4.256980 4.201856 0.000215 
PRIMCOORD
36 1
Li	      4.24788      4.17534      0.19934         0.041748      0.000539      0.016886
Li	      6.21565      4.28634      2.24505         0.011721     -0.000939     -0.003724
Li	      4.32296      6.09614      2.32038        -0.000983      0.004958     -0.020908
Li	      2.29992      4.12414      2.28337         0.011942     -0.011054     -0.035542
Li	      2.01316      2.20267      4.19580        -0.042703     -0.024528      0.014631
Li	      4.05943      4.35454      4.12054        -0.044390      0.030285      0.071765
Li	      2.27646      6.17637      4.31008         0.001063     -0.036503      0.007116
Li	      2.10400      4.30261      6.18538        -0.004442      0.025692      0.003612
Li	      4.17658      6.33880      6.19398        -0.009587     -0.009813      0.007564
Ti	      2.07853      8.28789      6.49524         0.130164     -0.653775      0.304231
Ti	      4.18607      4.30224      8.43283         0.085152      0.168358     -0.366803
Ti	      6.40245      6.30261      8.44998         0.091160     -0.057206     -0.114464
Mn	      6.38151      2.10049      4.29252         0.162655      0.019751     -0.233437
Mn	      6.39866      4.25356      6.24070        -0.057652     -0.017355      0.030199
V	      8.55864      6.22449      6.33738        -0.382660      0.090002      0.368533
Cr	      4.24926      2.15932      2.09577         0.003296     -0.039774      0.103792
Cr	      4.30004      8.35883      4.27758         0.047413     -0.077737      0.027948
Cu	      4.23336      0.02337      4.23985        -0.009237      0.096535      0.004914
O	      2.26354      2.07509      1.99926        -0.002578     -0.041426     -0.271162
O	      4.28583      4.05402      2.18758        -0.001830     -0.028933      0.013719
O	      4.26296      2.05689      4.24952         0.011302      0.022057     -0.188407
O	      6.55649      4.20163      4.18911        -0.097286     -0.060453      0.022265
O	      6.49177      2.09518      6.43943        -0.120521      0.011312     -0.053361
O	      8.54446      4.27918      6.51211         0.036673     -0.165730      0.177203
O	      1.97951      4.24015      4.25231        -0.031571      0.016824     -0.034229
O	      4.25719      6.39808      4.24915        -0.059576      0.106012     -0.048315
O	      4.25840      4.09909      6.53717         0.045431      0.072111      0.184267
O	      6.47757      6.31860      6.52688         0.169842      0.047419      0.038605
O	      6.19136      4.31314      8.58566        -0.097888      0.167669      0.002218
O	      8.37768      6.47112      8.41785        -0.231225      0.117072      0.165323
O	      2.06304      6.48680      6.34979        -0.002912      0.607844      0.000941
O	      4.06255      8.46138      6.39547        -0.009056      0.021137     -0.032899
O	      4.36059      6.26025      8.29872         0.134373     -0.072105     -0.110888
O	      6.39380      8.34500      8.47067         0.067494     -0.114612     -0.013260
O	      6.25897      6.27260     10.41730         0.119816     -0.040347     -0.092669
O	      8.55246      8.47885     10.54478         0.034854     -0.173287      0.054337
