# total energy = -251.83827725 eV
 
CRYSTAL
PRIMVEC
-0.014798 6.401128 6.239269 
6.396200 -0.022331 6.246635 
4.255927 4.264275 -0.006124 
PRIMCOORD
36 1
Li	      0.15938      6.22318      6.23096         0.030753     -0.059728      0.020009
Li	      6.33751     10.58420      8.23552         0.046459     -0.014350     -0.012970
Li	      4.45263      8.52264      8.20199         0.063850     -0.004299     -0.051200
Li	      8.45195      6.41471      6.25075        -0.084483      0.036043      0.064093
Li	      6.35457      4.30901      6.22184        -0.017196      0.029215      0.048594
Li	      0.03900      4.32550      4.25493        -0.052611      0.023369     -0.051162
Li	      2.02649      6.31489      4.26078        -0.030414     -0.025590     -0.042746
Li	      6.28754      8.62143      6.28867         0.096974     -0.033895      0.011475
Li	      6.35222      6.49647      8.27428         0.042215     -0.012884     -0.028939
Ti	      4.39008      6.35720     10.42552         0.351956     -0.046831      0.212834
Ti	      6.33325      2.10936      8.15807        -0.110739      0.123127      0.087549
Ti	      6.40494      6.41046      4.24479        -0.027721      0.010562      0.315538
Mn	      2.19872      8.45237      6.26487         0.127211      0.035557      0.003315
Mn	      8.43522      4.32130      8.24102        -0.057079      0.042415     -0.078873
V	      8.44661      8.51437      8.28102         0.229787      0.181174      0.013731
Cr	      4.22562      6.41525      6.27620         0.012830     -0.096792      0.065703
Cr	      4.27243      4.25014      4.18509         0.155717     -0.132370      0.136576
Fe	      6.37440      2.12734      4.17342        -0.181158      0.152506     -0.142211
O	      1.91882      2.15678      2.20444        -0.188113     -0.039974      0.020379
O	      4.22317      4.41258      2.16613         0.017422      0.065149      0.044040
O	      4.14574      2.12677      4.13070        -0.143892     -0.021591     -0.026058
O	      6.36479      4.34846      4.14344        -0.040670      0.328113     -0.059397
O	      6.36515      2.09663      6.31448        -0.015087      0.013984      0.103840
O	      8.46638      4.27743      6.06811         0.000668      0.008570     -0.210805
O	      2.24655      4.09578      4.16391        -0.038644     -0.023996     -0.032354
O	      4.36597      6.26914      4.20792         0.014249      0.025771     -0.050395
O	      4.28179      4.35172      6.21315        -0.052949     -0.106858     -0.291482
O	      6.31682      6.37156      6.12848        -0.041362     -0.002021     -0.308701
O	      6.29095      4.07003      8.36453        -0.136517     -0.139761      0.007404
O	      8.62017      6.45301      8.35745         0.142439      0.054033     -0.019539
O	      2.23394      6.37505      6.21103        -0.007676     -0.006887      0.024974
O	      4.27895      8.41458      6.25341         0.030966      0.004768      0.028634
O	      4.27919      6.31109      8.34206         0.036209      0.017319     -0.022294
O	      6.50319      8.49255      8.36345        -0.081600      0.036853      0.170334
O	      6.24373      6.42088     10.40850        -0.241538     -0.367404      0.038274
O	      8.48622      8.71812     10.35395         0.149743     -0.053297      0.011832
