# total energy = -248.67894708 eV
 
CRYSTAL
PRIMVEC
0.027912 6.398231 6.359069 
6.358709 0.026175 6.361313 
4.245743 4.273763 0.010511 
PRIMCOORD
36 1
Li	      2.22815      6.33817      8.37699         0.023037      0.011203      0.015750
Li	      4.30787      8.50131      8.37017        -0.003524     -0.024439      0.069748
Li	      8.54820     10.57998     10.57758        -0.041311     -0.046522     -0.027619
Li	      6.43600      8.54903     10.55023        -0.004486      0.005536     -0.018055
Li	      4.26544      2.15298      6.36428        -0.003230      0.003643     -0.028436
Li	     10.51975      8.60624     10.75320         0.003742     -0.024443     -0.020347
Li	      6.26114      8.66482      6.42896        -0.055259      0.076858     -0.031468
Li	      4.19199      6.50641      6.46256         0.002756      0.000942      0.017131
Li	      8.44147      8.61275      8.55979         0.023885      0.008730      0.031028
Ti	      4.29031      4.14998      4.25015         0.041009     -0.375372      0.030461
Ti	      6.34129      4.29912      6.37050        -0.061675      0.095861     -0.039597
Ti	      6.24135      6.59461      8.53439        -0.254139      0.232752     -0.009974
Mn	      8.51095      4.30459      8.45721        -0.044325     -0.010333      0.046689
Mn	      6.37214      6.43276      4.26905         0.070110      0.008173      0.040499
V	      8.50703      6.48160     10.62760         0.128509      0.042487     -0.171700
Cr	      2.18427      8.50461      6.34476        -0.114155      0.033756      0.032678
Cr	     10.59223      6.43514      8.48673        -0.165949      0.055968      0.104650
Ni	      0.03262      6.35001      6.31053        -0.096791      0.129789      0.028684
O	      2.00131      2.14881      2.06267        -0.016936     -0.087006     -0.077985
O	      4.30198      4.38939      2.22013         0.035821      0.049059      0.048582
O	      4.24336      2.31586      4.21450         0.064851      0.381050     -0.004845
O	      6.29254      4.26707      4.37578        -0.085185     -0.038069      0.009444
O	      6.40275      2.19353      6.44522         0.065461      0.041766      0.029613
O	      8.41293      4.20029      6.28419        -0.075547     -0.049323     -0.023381
O	      2.30382      4.35833      4.32355         0.062625      0.050297      0.045357
O	      4.22695      6.34377      4.14001         0.074023     -0.004693      0.152645
O	      4.42458      4.28257      6.21388         0.110870     -0.009420     -0.067376
O	      6.43601      6.22637      6.51220         0.008028     -0.094710      0.017763
O	      6.33363      4.22510      8.33661        -0.038925     -0.031338     -0.034951
O	      8.51268      6.42997      8.55028        -0.044018      0.026679     -0.092083
O	      2.08924      6.48610      6.31750         0.073580      0.004945      0.007438
O	      4.15837      8.61486      6.37853         0.041138     -0.129690      0.004960
O	      4.41487      6.41616      8.52241         0.307115     -0.002705     -0.064454
O	      6.39711      8.40344      8.43518         0.000742     -0.265950      0.025295
O	      6.46022      6.38528     10.47583        -0.010167     -0.003189     -0.001872
O	      8.50907      8.44755     10.70720        -0.021680     -0.062292     -0.044273
