# total energy = -254.27088422 eV
 
CRYSTAL
PRIMVEC
-0.020570 6.394476 6.437807 
6.319043 0.025874 6.390819 
4.227130 4.246465 0.002751 
PRIMCOORD
36 1
Li	      6.33233      6.44918     12.68207         0.004542     -0.015476     -0.052515
Li	      4.30500      6.36694     10.67392         0.052368     -0.015042     -0.040364
Li	      6.37833      8.38996     10.64256         0.011742      0.002527     -0.074445
Li	      6.27201      2.27174      8.51862         0.027899      0.031675     -0.004333
Li	      6.27033      4.28922      6.51606        -0.017190      0.035299      0.045729
Li	      2.14463      4.33765      6.48499        -0.011419      0.005599      0.041269
Li	      4.14749      6.32632      6.48837        -0.022302     -0.019523      0.014853
Li	      4.22622      4.33045      8.58864        -0.009175      0.044353      0.033718
Li	      6.29421      6.35536      8.62711        -0.024478      0.012584      0.001004
Ti	      4.30994      8.42171      8.40749         0.235398     -0.166097     -0.429759
Ti	      6.29075      6.28012      4.42687        -0.063200     -0.250983      0.349055
Ti	      4.33194      2.19378      6.52228         0.204153      0.050105      0.214854
Mn	      8.29790      2.18604      6.31392        -0.004909      0.036394     -0.022382
Mn	      6.24992      4.35783     10.66411         0.009061     -0.035412      0.058104
V	      8.37746      4.28388      8.45636         0.048510     -0.024334      0.020492
Cr	      8.37122      6.45343     10.71546         0.016025     -0.001091     -0.018351
Cr	      2.07342      6.39431      8.50559        -0.012393     -0.026166      0.028336
Cr	      4.20896      4.23574      4.32017         0.011799      0.053560     -0.027051
O	      2.19693      2.12118      2.23462         0.019413      0.027382      0.106867
O	      4.19258      4.12527      2.27812        -0.041869     -0.067388      0.090440
O	      4.07908      2.19928      4.30966        -0.043182      0.017254      0.053310
O	      6.23471      4.41016      4.29843        -0.034517      0.274369      0.087089
O	      6.17194      2.16495      6.40130        -0.280964      0.006701      0.008907
O	      8.44904      4.38902      6.47235        -0.002067      0.141201      0.017349
O	      2.18022      4.24410      4.18655         0.111315      0.031315      0.000356
O	      4.28183      6.30545      4.29875         0.029933     -0.123812      0.008185
O	      4.19767      4.12859      6.32934        -0.000243     -0.115623      0.000442
O	      6.41609      6.41527      6.26945         0.001536     -0.027256     -0.369937
O	      6.45578      4.26419      8.55345        -0.060698      0.023602     -0.088740
O	      8.43618      6.38178      8.43588         0.022527      0.043966     -0.093023
O	      2.09299      6.40045      6.34791        -0.012430     -0.028891     -0.275359
O	      4.18820      8.52435      6.56078         0.051810     -0.010211      0.447894
O	      4.15456      6.53936      8.58241         0.045415      0.212820     -0.034167
O	      6.17226      8.60337      8.56931        -0.280726     -0.094612     -0.020524
O	      6.40434      6.41472     10.67815         0.069614      0.053308     -0.020037
O	      8.39541      8.45147     10.64215        -0.051298     -0.082097     -0.057264
