# total energy = -253.88084799 eV
 
CRYSTAL
PRIMVEC
-0.022561 6.413537 6.260263 
6.484148 -0.008535 6.246603 
4.324530 4.268184 -0.007590 
PRIMCOORD
36 1
Li	      6.47162      4.26307      2.18361         0.003956     -0.015755      0.024854
Li	      6.49464      8.58301     10.32758         0.008592      0.012322     -0.034325
Li	     10.59665      6.45518      8.44629        -0.080627      0.026559     -0.034648
Li	      6.37448      6.41347      4.10357        -0.037089      0.033599     -0.036999
Li	      4.35291      4.37493      4.14242         0.047807      0.050512     -0.017103
Li	      8.63212      6.42262      6.40041        -0.002229      0.017575     -0.052203
Li	      8.73323      6.39179     10.23210         0.020740     -0.027331      0.097597
Li	      8.63515      8.30234      8.40594        -0.002373      0.008882      0.010292
Li	      6.66457      6.42884      8.36195        -0.001077      0.036816      0.050071
Ti	      6.58149      0.13771      6.22957         0.212080      0.152328     -0.009281
Ti	      4.39476      2.09799      2.22529         0.171339     -0.120062      0.359119
Ti	      6.35417      4.34904      6.28256        -0.276426      0.336903     -0.015570
Mn	      8.65619      4.38730      8.41629         0.004439      0.003448      0.026337
Mn	      2.27701      4.14645      6.24794         0.064272     -0.049218     -0.005667
Mn	      4.27973      6.37685      6.23983        -0.028532     -0.027087      0.006804
V	      2.15615      2.13833      0.00716        -0.027932     -0.110386     -0.084774
Cr	      8.61362      4.25390      4.13721        -0.018985      0.006578     -0.070378
Cr	      6.46143      4.23295     10.35103         0.027062     -0.038772     -0.050238
O	      2.36302      2.17734      1.95009         0.069080     -0.014862      0.058853
O	      4.33651      4.14257      1.91799         0.084555     -0.080609     -0.126524
O	      4.32399      2.05403      4.06456         0.032679     -0.043602     -0.366448
O	      6.59997      4.20464      4.34289         0.030854      0.029439      0.080837
O	      6.53237      2.03527      6.25288         0.038257     -0.200990     -0.006268
O	      8.67227      4.19181      6.16823         0.001472      0.016826     -0.084109
O	      1.99131      4.25211      4.23273        -0.061837     -0.008697     -0.024621
O	      4.29123      6.52039      4.17124         0.002904      0.042478     -0.044302
O	      4.46680      4.22990      6.20546         0.337225     -0.055897      0.034983
O	      6.48093      6.21208      6.27516         0.004955     -0.364801     -0.003074
O	      6.47526      4.22022      8.26074        -0.035383     -0.007416     -0.097406
O	      8.60978      6.41380      8.32195         0.025253     -0.019949      0.019656
O	      1.99551      6.51542      6.21166        -0.328678      0.066467     -0.010000
O	      4.24768      8.64555      6.18160        -0.063844      0.119666      0.040085
O	      4.22711      6.56544      8.36845        -0.006187      0.192666      0.120442
O	      6.27620      8.56034      8.28353        -0.245048     -0.009812      0.098326
O	      6.31961      6.32660     10.53671        -0.016165     -0.013779      0.126359
O	      8.71086      8.65220     10.46165         0.044894      0.055963      0.019323
