# total energy = -101.90783992 eV
 
CRYSTAL
PRIMVEC
0.001187 2.108198 2.103315 
6.628526 4.344622 -6.434728 
-4.337602 2.107889 -2.105234 
PRIMCOORD
16 1
Li	     -4.01228      2.33372     -2.31927         0.009790      0.001671     -0.003415
Li	     -2.35181      4.04104     -1.92655        -0.018686      0.003190     -0.004193
Li	     -0.05514      4.14930     -4.13965        -0.013694     -0.016547      0.019077
Li	     -1.99942      2.34231     -0.22448        -0.015856      0.001418      0.004496
Ti	      2.12428      4.22813     -2.11142        -0.445514     -0.201219      0.200346
Ti	      4.55268      4.35355     -4.34714         0.406619      0.121281     -0.120198
Ni	      2.20210      6.38861     -4.27395         0.022255      0.011309     -0.007669
Ni	     -0.19260      2.01769     -2.00937         0.132515      0.089731     -0.093020
O	      0.02847      6.51197     -4.39387        -0.105010      0.049287     -0.050001
O	      0.32068      4.30356     -2.18524         0.503959      0.024544     -0.034477
O	      2.33789      4.24140     -4.23231         0.022186     -0.093569      0.098312
O	      0.03788      2.17547     -0.06017         0.008457     -0.153349      0.148103
O	      2.36694      2.34212     -2.32962        -0.022203      0.202748     -0.203687
O	      2.04046      6.30550     -6.29816        -0.434128      0.110683     -0.108315
O	     -2.12361      2.15927     -2.14899        -0.160497      0.000111     -0.002352
O	      4.27099      6.27054     -4.15963         0.109806     -0.151289      0.156993
