# total energy = -246.93822365 eV
 
CRYSTAL
PRIMVEC
0.025521 6.360718 6.209315 
6.441989 -0.001850 6.236274 
4.294031 4.258040 -0.000509 
PRIMCOORD
36 1
Li	      0.06297      6.27804      6.14051         0.007711     -0.023386      0.044863
Li	      2.24137      8.45145      6.22304         0.024265     -0.020222      0.009104
Li	      4.51799      6.29956     10.35335         0.039977      0.024005      0.014911
Li	      6.48890      2.10780      8.25821        -0.019913     -0.009680      0.003974
Li	      2.17196      4.19949      2.06763         0.023838      0.019962     -0.013375
Li	     10.73443      8.63647     10.52394         0.007085      0.025590      0.032299
Li	      6.29270      8.54837      6.21319        -0.039220      0.033325     -0.028490
Li	      4.26433      6.47259      6.21300        -0.044506      0.025406     -0.044295
Li	      6.43815      6.33421      8.38657         0.015135     -0.007397     -0.000775
Ti	      4.17061      4.35115      4.15521        -0.224956      0.285033     -0.039062
Ti	      6.61924      4.28729      6.25799         0.263700     -0.006872      0.162384
Ti	      8.63536      8.45734      8.29208         0.132700     -0.133894      0.088178
V	      8.58791      6.39267      6.26934         0.060611     -0.056695     -0.066323
Cr	      2.17784      6.35436      8.21159        -0.035413     -0.033930     -0.088904
Cr	      6.48649      8.43754     10.36934        -0.042690     -0.063929      0.036155
Fe	      4.28335      8.42433      8.13245         0.108091     -0.049045      0.226768
Fe	      2.12824      2.14438      4.13294        -0.141018     -0.019735      0.077332
Fe	      2.12075      6.36064      4.27042         0.003148      0.016604     -0.079334
O	      2.24545      2.00114      2.11879        -0.018255      0.091134     -0.134007
O	      4.38945      4.15472      2.18794        -0.015892      0.035427      0.147703
O	      4.41922      2.18978      4.11850        -0.042000      0.028271     -0.125020
O	      6.32776      4.17438      4.18089         0.027382     -0.138991      0.025023
O	      6.41537      2.29216      6.15954         0.087278      0.096220      0.002576
O	      8.46934      4.27922      6.28164        -0.321012     -0.057704      0.001781
O	      2.28970      4.21520      4.13601         0.325800      0.078943     -0.095790
O	      4.29775      6.22036      4.11503         0.046890     -0.362476      0.006281
O	      4.38137      4.24435      6.20368         0.012541      0.071780     -0.037393
O	      6.47529      6.23598      6.16054        -0.021542     -0.250711      0.095761
O	      6.29364      4.25314      8.18535        -0.119315      0.054115     -0.160354
O	      8.59223      6.52708      8.34548        -0.042322      0.236478     -0.000246
O	      2.15037      6.36376      6.26272        -0.013982      0.014611      0.267835
O	      4.32146      8.48862      6.28880        -0.008141     -0.002846     -0.237944
O	      4.20490      6.32219      8.28246         0.004288     -0.087899      0.017376
O	      6.51076      8.55387      8.31255         0.045738      0.032779      0.005862
O	      6.46232      6.47289     10.37693        -0.097366      0.064456     -0.004896
O	      8.52634      8.53279     10.21571         0.011368      0.091274     -0.109956
