# total energy = -245.01779556 eV
 
CRYSTAL
PRIMVEC
-0.002267 6.265378 6.422602 
6.200902 -0.001061 6.421080 
4.109350 4.151732 0.023827 
PRIMCOORD
36 1
Li	      4.14818     10.38989      6.47788         0.037418      0.016155      0.077378
Li	      2.07880      8.32047      6.39550         0.009861     -0.006411     -0.019467
Li	      4.17222      6.21416     10.66421         0.031052      0.008356     -0.025474
Li	      2.01608      2.16114      4.23297        -0.023431     -0.001401     -0.026312
Li	      4.03633      4.22290      4.28436        -0.038648      0.023712     -0.005863
Li	      2.07169      6.22738      4.36767        -0.030024     -0.007804      0.045270
Li	      2.09964      4.23189      6.32768         0.027688      0.016267     -0.115786
Li	      4.07271      6.20939      6.38293        -0.013463     -0.041372     -0.045079
Li	      8.23599      8.34111      8.62889         0.074758     -0.039586     -0.009021
Ti	      2.13548      6.30761      8.44509        -0.033882     -0.035183     -0.676849
Ti	      4.08744      2.09321      6.31859        -0.064782      0.043301     -0.333347
Ti	      6.18039      4.19558      6.30294        -0.049869      0.020864     -0.084649
V	      4.06556      8.28016      4.46349        -0.017148      0.090805      0.012021
Cr	      6.27618      8.29659     10.74480        -0.011916     -0.061653      0.031628
Cr	      2.10722      4.12463      2.19179        -0.003151     -0.030900      0.087162
Cr	      6.13613      6.29672      8.58229        -0.046275     -0.048804      0.058029
Co	      4.06085      6.24669      2.24623        -0.042904      0.192704      0.141259
Cu	      4.10534      8.29800      8.49935         0.028947     -0.082737     -0.093250
O	      1.97853      2.04355      2.15864        -0.182437      0.034787      0.041673
O	      4.15787      4.18408      2.20383         0.000356     -0.302838      0.011758
O	      4.23387      2.03928      4.45931         0.009891      0.000978      0.342066
O	      6.22451      4.08529      4.36912        -0.013496      0.041255      0.131211
O	      6.15618      2.13859      6.39917        -0.053057      0.022907     -0.013942
O	      8.19050      4.20223      6.57821        -0.033192      0.013765      0.028542
O	      1.95931      4.14904      4.17560        -0.029428     -0.000660     -0.042727
O	      4.05631      6.38677      4.26672         0.105925     -0.154346     -0.148144
O	      4.20495      4.08561      6.43534         0.136004     -0.099077     -0.046590
O	      6.19240      6.21776      6.54048         0.068862     -0.008066      0.030917
O	      6.24906      4.25664      8.55408        -0.009893      0.150306     -0.068791
O	      8.18705      6.14813      8.46304         0.119935      0.056678     -0.032750
O	      2.07033      6.23418      6.62834         0.029342      0.057418      0.662414
O	      4.13747      8.40781      6.21280         0.007914     -0.010928      0.018147
O	      4.07398      6.22820      8.55942        -0.005748      0.062807      0.040891
O	      6.25030      8.35660      8.73170         0.000885      0.070355      0.065982
O	      6.19129      6.26749     10.57847         0.032967      0.013713     -0.046980
O	      8.27939      8.32361     10.73692        -0.019061     -0.005367      0.008674
