# total energy = -245.40593840 eV
 
CRYSTAL
PRIMVEC
0.017051 6.313516 6.308952 
6.280540 0.046228 6.279592 
4.215343 4.217764 0.002585 
PRIMCOORD
36 1
Li	      2.13571      8.34164      6.22808        -0.000066     -0.056127     -0.010120
Li	      2.30047      6.34281      8.37519        -0.068531      0.033742     -0.031503
Li	      4.20243      6.18193     10.31505         0.056964      0.029194      0.096722
Li	      6.47156      8.43824     10.41229         0.010481     -0.075396     -0.006055
Li	      2.12471      2.09800      4.14667         0.038090     -0.022664     -0.061108
Li	      8.35884      6.49097     10.46361        -0.084697     -0.026606     -0.007296
Li	      4.15287      6.37147      6.45891        -0.081505      0.027863      0.014156
Li	      8.36313      8.63905      8.58076        -0.012292     -0.044869      0.008121
Li	      6.15592      6.35825      8.49378        -0.031615      0.035315      0.144363
Ti	      4.27382      4.32087      4.11211         0.270112      0.020156     -0.226275
Ti	      8.35655      6.39236      6.29377         0.721610     -0.906923     -0.107882
Ti	      6.30931      8.42278      6.43236        -0.979458      0.826871      0.507750
V	      6.33314      6.36098     12.50094        -0.280282     -0.059555      0.353613
Cr	     10.42813      8.44410     10.46520        -0.060385      0.212189      0.155011
Cr	      2.09993      4.20325      2.13720         0.171241      0.003776     -0.102781
Cr	      6.28359      4.28333      6.29816         0.190608     -0.202799     -0.033530
Co	      4.19315      8.26592      8.47801        -0.026918      0.226157     -0.022338
Co	      0.08401      2.10293      2.11112        -0.024834      0.033436     -0.083195
O	      2.10964      2.22243      2.09626         0.249490     -0.146755     -0.006209
O	      4.14750      4.14961      2.12202         0.040646     -0.159328      0.300603
O	      4.19418      2.30429      4.32895        -0.029136      0.140275      0.220298
O	      6.16508      4.26140      4.29497        -0.292588      0.047403      0.006586
O	      6.23583      2.21525      6.30134        -0.061025      0.155706     -0.024522
O	      8.35675      4.33133      6.37406        -0.320162      0.219107      0.038606
O	      2.14558      4.21978      4.19050         0.026925     -0.030319      0.036037
O	      4.19286      6.26575      4.16403         0.067878     -0.176850      0.015387
O	      4.20661      4.24364      6.19211        -0.247523     -0.165273      0.114893
O	      6.34686      6.32434      6.28057         0.308931      0.290705      0.021862
O	      6.39043      4.29034      8.36535        -0.021009     -0.133634     -0.019298
O	      8.48044      6.28864      8.24885        -0.005012     -0.029785     -0.236091
O	      1.99227      6.18867      6.33747         0.466205     -0.145056     -0.015137
O	      4.31472      8.42772      6.18545         0.094591     -0.127851     -0.016568
O	      4.19310      6.35690      8.40038        -0.032043      0.384257     -0.008771
O	      6.30450      8.41195      8.27684        -0.109589     -0.129759     -0.415213
O	      6.26437      6.23468     10.59893         0.019547     -0.022009     -0.570593
O	      8.50828      8.43124     10.50457         0.035351     -0.024594     -0.029524
