# total energy = -243.35283228 eV
 
CRYSTAL
PRIMVEC
0.044100 6.121750 6.578742 
6.201276 0.009888 6.612499 
4.135322 4.105700 0.005261 
PRIMCOORD
36 1
Li	      4.14283      4.06069      0.22953        -0.007118     -0.029329      0.051668
Li	      6.17433      4.15802      2.23433         0.054774     -0.040644     -0.052152
Li	      4.12071      0.06228      4.34004         0.015960      0.027106     -0.010292
Li	      2.13294      4.03011      2.19108        -0.040059      0.008545     -0.053768
Li	      6.16355      6.03751      4.30473         0.081500     -0.036525     -0.029460
Li	      4.16216      4.14336      4.26654         0.009738     -0.077349     -0.019140
Li	      6.10997      4.10180      6.54594        -0.001889      0.066610     -0.044043
Li	      4.19819      6.12676      6.67328        -0.010462      0.004480      0.135356
Li	      4.19265      4.16106      8.66680         0.000289      0.051079     -0.048112
Ti	      6.24892      2.22176      4.30630        -0.221159      0.247655     -0.229870
Ti	      8.25547      5.97717      6.59085        -0.078104     -0.243658      0.000664
Ti	      2.14182      4.21316      6.44862         0.054469      0.127646     -0.047641
V	      6.18209      6.12391      8.84165         0.236752     -0.057772     -0.133897
Cr	      2.07177      2.04631      0.04975         0.058128      0.039623      0.000024
Cr	      4.13701      6.09211      2.21408         0.061970      0.162506     -0.144749
Cr	     10.33237      8.16962     10.98989        -0.004827      0.115790      0.036824
Cu	      4.05244      2.11573      2.26596         0.001583      0.069453      0.093030
Cu	      2.15856      6.06050      4.34006        -0.104391      0.005961      0.044488
O	      2.01216      2.04658      2.02875        -0.212974     -0.000891      0.002569
O	      4.10277      4.12499      2.24117         0.023239      0.055149      0.003623
O	      4.31200      2.03610      4.64561         0.169999     -0.010180      0.304695
O	      6.22430      4.02384      4.42190         0.008410     -0.343723      0.002158
O	      6.20315      2.04090      6.63284        -0.042113      0.014975      0.003904
O	      8.24368      4.10688      6.60815         0.002968      0.280636      0.042760
O	      2.01748      3.96907      4.58931         0.003016      0.107939      0.070602
O	      4.16987      6.18681      4.20295        -0.192956     -0.044815      0.053538
O	      4.00526      4.03094      6.59544        -0.175618     -0.006171     -0.031299
O	      6.30654      6.21085      6.73692         0.131457      0.052479     -0.134214
O	      6.18320      4.07348      8.97004         0.040109     -0.082714      0.056597
O	      8.29873      6.14977      8.55407         0.087683      0.043695     -0.141623
O	      2.11136      6.08882      6.69309         0.003761     -0.164464     -0.031813
O	      4.16779      8.17518      6.41856         0.056202     -0.002063     -0.175233
O	      4.31663      6.27293      8.76673        -0.294028     -0.159954     -0.031814
O	      6.31600      8.22430      8.96224         0.166828      0.009733      0.237960
O	      6.28324      6.12551     10.82918         0.132401     -0.035927      0.174467
O	      8.26877      8.25679     11.18732        -0.015540     -0.154882      0.044195
