# total energy = -244.42856435 eV
 
CRYSTAL
PRIMVEC
0.010673 6.372204 6.146801 
6.309675 0.023493 6.133720 
4.216995 4.250046 0.005279 
PRIMCOORD
36 1
Li	      6.22592      6.38807     12.13296        -0.012686     -0.058922     -0.003914
Li	      8.44269      8.57689     12.06842         0.011117     -0.001477      0.022749
Li	      8.44735      4.15845      4.22661         0.014340     -0.013052     -0.033483
Li	      6.41848      2.12361      4.21323        -0.002248     -0.015201      0.021014
Li	      2.20651      2.22447      4.14555         0.034308     -0.061441     -0.003015
Li	      4.13531      4.13463      4.16706         0.098455     -0.052414     -0.003276
Li	      4.27442      2.04253      5.93626         0.032622      0.015744     -0.035913
Li	     10.41393      8.53624     10.34166        -0.077442      0.020561      0.021848
Li	      8.41108      6.51740     10.31225        -0.032975      0.079125      0.017862
Ti	      6.28005      4.32484      2.13968        -0.053508      0.022877      0.200429
Ti	      4.25127      6.31212      2.12072        -0.003456     -0.066055      0.000596
Ti	      6.38873      6.44196      8.32316         0.057207      0.031527      0.791886
V	      4.20727      2.12516      2.12192        -0.020248      0.067174     -0.002285
Cr	      8.41757      4.28754      8.18929         0.088813     -0.039858      0.163329
Cr	      6.33542      4.25965      6.05428         0.005166     -0.133193     -0.082259
Cr	      4.20498      6.39734      6.05757        -0.033690      0.025991     -0.034438
Fe	      2.12837      4.26225      5.93736        -0.067201      0.014050      0.220572
Ni	      8.44952      8.51727      8.27959        -0.043821     -0.044078     -0.142036
O	      2.10619      2.14203      2.07187        -0.098912      0.011833      0.044909
O	      4.20424      4.28475      2.01273         0.007523      0.119598      0.047259
O	      4.22533      2.13292      3.98862        -0.020833      0.010406      0.082479
O	      6.31236      4.25381      4.01652         0.009771      0.022609     -0.235467
O	      6.28830      2.24883      6.31511         0.018496      0.099926      0.124616
O	      8.32438      4.27280      6.21253         0.002298      0.026229      0.025318
O	      2.11257      4.25059      4.01846         0.017693      0.004641     -0.439604
O	      4.21165      6.38212      4.01046        -0.017032      0.020490     -0.096855
O	      4.29996      4.36635      6.19631         0.050216      0.077782     -0.092140
O	      6.23211      6.31298      6.20046        -0.029978     -0.115917      0.039550
O	      6.37443      4.31506      8.11253         0.125635      0.008303      0.023787
O	      8.36660      6.34396      8.17941        -0.044302     -0.120458      0.017558
O	      2.19484      6.36089      6.32513         0.039388      0.115792      0.061250
O	      4.22650      8.39914      6.24336        -0.048119     -0.067515     -0.042352
O	      4.24306      6.39158      8.12090         0.018466      0.063415      0.006319
O	      6.30549      8.45919      8.18015        -0.052152     -0.103515     -0.194638
O	      6.29836      6.37440     10.11110         0.042985      0.031128     -0.711467
O	      8.42415      8.50139     10.18445        -0.015898      0.003895      0.219813
