# total energy = -248.44609075 eV
 
CRYSTAL
PRIMVEC
-0.004272 6.402398 6.292010 
6.222278 -0.010530 6.298034 
4.150497 4.274271 -0.009076 
PRIMCOORD
36 1
Li	      6.21687      0.08196      6.28871         0.023388      0.024637     -0.032184
Li	      4.24810      8.44929      8.43472        -0.023338     -0.024552      0.070716
Li	      6.10436      2.17041      4.18985        -0.040199     -0.045769      0.002003
Li	      4.27502      4.14365      4.34498        -0.047425     -0.037214      0.015892
Li	      4.16333      2.31936      6.18641        -0.017116     -0.014665     -0.041313
Li	      6.04627      4.28164      6.29438        -0.012425      0.008526      0.051227
Li	      4.25824      6.23137      6.41906        -0.003681     -0.008771     -0.009716
Li	      4.06221      4.35173      8.24913        -0.001204     -0.001647     -0.009073
Li	      6.13808      6.48080      8.23699         0.035386      0.030030     -0.024610
Ti	      8.39710      4.31593      8.25693         0.024304      0.097519     -0.209480
Ti	      0.01627      4.29982      4.20686        -0.082563     -0.035642      0.172707
Ti	      2.01406      6.34206      4.26608         0.038643      0.107628     -0.033221
V	      6.24112      6.38615      4.28257        -0.336452     -0.049401      0.058472
Cr	      2.07868      2.13432      0.01146         0.059795     -0.028230      0.003863
Cr	      6.20981     10.59603      8.40214        -0.020051     -0.029235     -0.141754
Cr	      4.14616      6.41221     10.47172         0.068676      0.194130     -0.071753
Fe	      6.13597      2.12420      8.26375         0.081229      0.089606      0.050394
Fe	      2.18778      4.24466      6.36848        -0.213722     -0.180881      0.064351
O	      2.10259      2.19392      2.07559         0.070993      0.023929     -0.072003
O	      4.09727      4.26739      2.11461        -0.212096     -0.071674     -0.045892
O	      4.03894      1.97068      4.21641         0.506750     -0.020383      0.069327
O	      6.28814      4.32384      4.10041         0.015230      0.207503     -0.006082
O	      6.33580      2.13904      6.30083         0.051327     -0.003199     -0.119342
O	      8.33853      4.16767      6.34251        -0.012215     -0.039565      0.196158
O	      2.07632      4.28065      4.10218        -0.023408     -0.115189     -0.099254
O	      4.10004      6.50871      4.11622        -0.271041      0.088899      0.002067
O	      4.11531      4.25841      6.28480         0.200022      0.030841     -0.003191
O	      6.18169      6.40442      6.18709         0.093279     -0.160027      0.087825
O	      6.38535      4.25224      8.51533         0.119272      0.069416      0.144188
O	      8.22767      6.24592      8.56002        -0.048389     -0.202651      0.113079
O	      2.07215      6.50954      6.27399        -0.033886      0.027576     -0.085174
O	      4.16022      8.55714      6.12801        -0.097099      0.039517     -0.291961
O	      4.04400      6.37560      8.51170        -0.014613     -0.013886      0.055105
O	      6.18407      8.66467      8.41649        -0.017317      0.103256      0.127068
O	      6.21524      6.32763     10.48855         0.044550     -0.040467      0.001526
O	      8.35408      8.49180     10.57116         0.095392     -0.019966      0.010036
