# total energy = -241.93411555 eV
 
CRYSTAL
PRIMVEC
-0.008955 6.331786 6.213262 
6.383073 -0.025126 6.229391 
4.244640 4.221003 -0.005904 
PRIMCOORD
36 1
Li	      6.27755      4.26156      2.12394         0.010497      0.023116     -0.023204
Li	      4.18293      2.21750      2.14591        -0.028051      0.043831     -0.035613
Li	      4.13828      6.23481      2.13750        -0.005380      0.140938      0.028533
Li	      8.61650      4.31955      8.30225        -0.061614      0.037725     -0.025657
Li	      2.11167      2.06299      4.07156         0.001044     -0.072894     -0.059003
Li	      4.23963      4.27329      3.93884         0.068538      0.018547     -0.015989
Li	      8.45841      6.24170      6.32898        -0.031708      0.018078      0.003565
Li	      6.41985      4.26215      6.28209         0.017144     -0.005757      0.137678
Li	      6.44386      6.24523      8.27203        -0.019183     -0.175198      0.000288
Ti	      2.08437      2.16243      0.18376         0.021176      0.207470      0.843985
Ti	      6.24267      2.20818      4.07114        -0.684380      0.401999      0.003942
Ti	      6.46740      8.28576      6.20408         0.167951     -0.610277      0.224916
V	      6.40628      4.17598     10.27234         0.426105     -0.138970      1.030632
Cr	      4.24292      4.24199      0.07376        -0.115840     -0.029368      0.085399
Cr	      4.27411      6.31133      6.26932         0.126666     -0.127004      0.014426
Cr	      8.52281      8.37167      8.28853         0.313283      0.021797     -0.256289
Ni	      4.23688      6.33446     10.29056        -0.103811      0.141965     -0.038860
Ni	      8.53365      6.27608     10.29534        -0.041971     -0.003551     -0.033955
O	      2.13009      2.11198      1.96324         0.013257     -0.011583     -0.614874
O	      4.23931      4.22888      1.99875         0.007208      0.023208     -0.068552
O	      4.40904      2.04990      4.15252         0.550766      0.089352     -0.057831
O	      6.40516      4.05374      4.16999        -0.073521     -0.412545     -0.060149
O	      6.53544      2.03421      6.09167         0.137548     -0.085540     -0.093094
O	      8.56316      4.05780      6.16530         0.103487     -0.176264      0.066685
O	      2.08666      4.24613      4.28964        -0.485496     -0.029182     -0.089041
O	      4.22112      6.43794      4.22310         0.078220      0.201794     -0.035842
O	      4.10973      4.20120      6.27650        -0.308247     -0.015539     -0.049031
O	      6.37279      6.44472      6.19808         0.027957      0.524253     -0.082959
O	      6.27250      4.20111      8.35390        -0.234266     -0.054507     -1.089834
O	      8.49811      6.38209      8.29787        -0.025144     -0.040316      0.011035
O	      2.03769      6.39229      6.18231        -0.037753     -0.000445      0.019263
O	      4.20820      8.52663      6.16923        -0.045054      0.070815      0.345952
O	      4.24617      6.19219      8.27883        -0.056200     -0.036930     -0.091378
O	      6.43083      8.40988      8.29775        -0.058023      0.008610      0.009900
O	      6.37654      6.30310     10.42940         0.046328      0.025121     -0.022166
O	      8.48022      8.40541     10.33609         0.298469      0.027251      0.017119
