# total energy = -248.92771867 eV
 
CRYSTAL
PRIMVEC
-0.016144 6.305514 6.244680 
6.420681 -0.029683 6.258431 
4.261677 4.193863 -0.000969 
PRIMCOORD
36 1
Li	      8.48017      8.44357     12.30470        -0.009023      0.014457      0.059657
Li	      8.65359     10.27914     10.45084         0.109842     -0.002483     -0.043588
Li	      6.62885      8.24333     10.45898         0.005807     -0.091956     -0.047223
Li	     10.53166      6.38138      8.43230        -0.036685      0.036399      0.044643
Li	      8.40066      4.32500      8.36702        -0.000788     -0.072834      0.010356
Li	      4.21165      4.31427      4.13223        -0.045476      0.030733     -0.054021
Li	     10.52443      8.36392     10.27943         0.003963      0.003069     -0.041673
Li	      8.49364      6.40639     10.25448        -0.044197     -0.016071     -0.011020
Li	      6.56914      6.12840      8.55423        -0.010283      0.009033      0.074605
Ti	      6.36540      4.16503      2.21059         0.112939      0.041073      0.052084
Ti	      4.30289      2.09763      2.23729        -0.056083     -0.132212      0.152377
Ti	      2.14028      4.23446      6.16996         0.068982     -0.080181     -0.255764
V	      6.37056      6.31137     12.39299         0.079990      0.006478      0.101565
Cr	      6.46118      4.11298      6.28725        -0.081581      0.111326      0.038254
Cr	      4.19585      6.35311      6.17467         0.029422     -0.059664      0.061984
Cr	      2.08865      2.10890      4.12964        -0.046670      0.098666     -0.011334
Cr	      8.55761      6.25027      6.28458        -0.133260      0.182997      0.034710
Co	      8.61989      8.33089      8.47650         0.072872     -0.164929     -0.291662
O	      2.26478      1.97705      2.12738         0.019707      0.015685     -0.004452
O	      4.36708      4.09042      2.00643         0.075607     -0.015426      0.216577
O	      4.17956      2.12122      4.11750        -0.006749     -0.020702     -0.101209
O	      6.37616      4.25403      4.12195        -0.017016     -0.039168     -0.061407
O	      6.31087      2.08709      6.23587        -0.053686     -0.084499      0.009396
O	      8.47890      4.24950      6.24573        -0.016206     -0.009047     -0.038466
O	      2.16297      4.11582      4.30789         0.023213      0.014385      0.224355
O	      4.39838      6.29611      4.19376         0.023648      0.017297     -0.035208
O	      4.26501      4.12534      6.28208         0.081654     -0.005842      0.300070
O	      6.49017      6.25735      6.15701         0.060611     -0.025903      0.007066
O	      6.42197      4.18319      8.19883        -0.125347     -0.000010     -0.016262
O	      8.52884      6.27937      8.23479         0.006657      0.324603      0.089181
O	      2.04366      6.18717      6.36119         0.017447     -0.000527      0.059484
O	      4.38855      8.46823      6.38773        -0.022101      0.017132      0.015191
O	      4.11536      6.37793      8.26435        -0.015574     -0.085531      0.084177
O	      6.29462      8.42913      8.26918        -0.093214      0.059284      0.101315
O	      6.39686      6.26043     10.53244         0.027287     -0.050027     -0.283993
O	      8.55044      8.35231     10.41527        -0.005709     -0.025606     -0.439765
