# total energy = -100.44731194 eV
 
CRYSTAL
PRIMVEC
-0.000240 2.058077 2.058042 
9.137673 -4.265824 4.265989 
2.175699 4.116533 -2.057958 
PRIMCOORD
16 1
Li	      0.48586      1.88084      2.23169        -0.030079     -0.029965      0.031897
Li	      2.51313      1.86410      0.19172        -0.026748      0.017758     -0.021057
Li	      2.41492     -0.01880      2.07363        -0.008251     -0.016537      0.021855
Li	      6.39440      4.19954      1.97195         0.001829      0.000489     -0.002461
Ti	      8.90460      1.97212      2.14143        -0.262702      0.000620      0.000098
Ti	      9.27040     -0.12590      4.23863         0.833646     -0.066755      0.068438
Ni	      4.31741      2.01868      2.09493         0.078685     -0.004430      0.006661
Ni	      6.57779     -0.03956      2.09525         0.092270     -0.030822      0.031555
O	      7.04879      1.93381      2.17989         0.345064      0.100438     -0.102082
O	      6.89041     -0.11905      4.23162         0.029733     -0.101686      0.102439
O	      8.99174     -0.10968      2.16500         0.006942     -0.006622      0.006491
O	      8.83300     -2.06322      4.11841        -0.038711      0.101498     -0.102018
O	      1.88677      4.13924     -0.02616        -0.788612      0.026700     -0.030832
O	      2.30216      1.98111      2.13280        -0.093439     -0.008152      0.003357
O	      4.49812      1.92766      0.12807         0.024660      0.094459     -0.097398
O	      4.63741      0.00485      2.05040        -0.164285     -0.076994      0.083058
