# total energy = -248.98397493 eV
 
CRYSTAL
PRIMVEC
0.022516 6.362224 6.198564 
6.413008 0.023982 6.196964 
4.284946 4.250196 0.006030 
PRIMCOORD
36 1
Li	     10.60608      4.36067      6.24995        -0.067116     -0.033283     -0.056810
Li	      8.41013      2.33516      6.25014        -0.000770      0.179933     -0.029650
Li	      8.43010      4.29022      4.23425        -0.025294      0.035331      0.032101
Li	      6.47752      2.10764      8.15420         0.002862      0.007737      0.011871
Li	      8.57830      4.25777      8.14273        -0.021230      0.024842     -0.003534
Li	      4.40444      4.23353      4.18215        -0.029991     -0.044299      0.029364
Li	      6.49069      4.16193      6.16752         0.067886      0.073187      0.052532
Li	      4.23675      6.24784      6.24107         0.025050     -0.074360      0.014176
Li	      4.31942      4.28987      8.18281         0.041393     -0.027680      0.022537
Ti	      4.19096      2.28032      2.01864        -0.085639      0.335536      0.026087
Ti	      2.29227      6.42862      4.12109        -0.036638      0.184660      0.054208
Ti	      6.34733      6.25446      8.23904        -0.241220     -0.298570     -0.009994
V	      8.65834      6.32156      6.24900        -0.175306     -0.164987     -0.069316
Cr	      6.45324      2.24282      4.14983         0.014764     -0.036234      0.020623
Cr	      4.29037      8.50965      4.19688         0.017411      0.070058     -0.022151
Cr	      6.40720      6.30511      4.11607         0.055466      0.036165      0.116157
Cr	      2.19698      4.26040      6.23218        -0.003492     -0.093875      0.030959
Cu	      2.09977      0.11532      1.99220        -0.070163      0.122121     -0.108487
O	      2.26325      2.19304      2.11161         0.046405     -0.016517     -0.022931
O	      4.27775      4.10541      2.06846         0.008261     -0.294573     -0.025140
O	      4.17025      2.11981      4.05480        -0.129715     -0.006814     -0.071633
O	      6.39861      4.33167      4.17078        -0.022535      0.114059     -0.108812
O	      6.32567      2.17134      6.15853         0.123621     -0.000400      0.020911
O	      8.55106      4.38293      6.19271         0.019804      0.119736     -0.003807
O	      2.03551      4.22892      4.22729        -0.009695     -0.049541     -0.019056
O	      4.26959      6.46511      4.10414         0.015915     -0.024672      0.005064
O	      4.14002      4.14125      6.21781         0.079762      0.018692     -0.020159
O	      6.49164      6.43095      6.22541         0.048528      0.045426      0.070196
O	      6.41212      4.37405      8.37064        -0.028737      0.260792      0.036510
O	      8.50708      6.35249      8.35878        -0.027628      0.017531      0.089526
O	      2.20536      6.23553      6.03054         0.005694     -0.027110     -0.012280
O	      4.38740      8.49930      6.25186         0.055895     -0.038890      0.029474
O	      4.50260      6.42799      8.26335         0.181009     -0.025056      0.025343
O	      6.36155      8.34355      8.28477         0.002816     -0.068179     -0.090254
O	      6.59537      6.34267     10.24038         0.020278     -0.085577      0.001941
O	      8.67169      8.36875     10.38072         0.142351     -0.235189     -0.015565
