# total energy = -252.34313964 eV
 
CRYSTAL
PRIMVEC
-0.004343 6.383354 6.268170 
6.295643 0.014069 6.250117 
4.207905 4.254051 -0.001330 
PRIMCOORD
36 1
Li	      4.25100     10.54404      6.29939         0.007345     -0.033922     -0.010298
Li	      2.17817      8.44908      6.31787         0.039416     -0.045824     -0.012988
Li	      4.21228      8.54283      8.22449         0.015378      0.002468     -0.037304
Li	      8.39375      4.23420      8.29025        -0.015406     -0.037702     -0.055659
Li	      2.10940      2.16681      4.14911        -0.020761     -0.022750     -0.011152
Li	      8.33093      6.41046     10.47148        -0.019048      0.000765      0.040244
Li	      6.25598      8.52049      6.36988        -0.017165     -0.012243      0.052579
Li	      8.34019      8.45728      8.35199        -0.017228     -0.013471      0.018404
Li	      6.38717      6.48853      8.31212         0.061639      0.116341      0.021753
Ti	      4.28221      6.34228     10.39756         0.123267     -0.108772      0.025952
Ti	      4.20150      6.36528      2.09916         0.039800      0.013225      0.031515
Ti	      4.00444      4.29887      4.13285        -0.298546     -0.022982     -0.018797
V	      4.22211      6.43185      6.29646         0.111226     -0.027255      0.003506
Cr	      2.08296      6.36561      8.31500        -0.000091      0.034328     -0.026242
Cr	      6.29916      8.52596     10.42773         0.135249      0.015782      0.023074
Cr	      0.05885      4.26890      4.17285        -0.007515     -0.013100      0.119096
Cr	      8.34993      6.40955      6.28005        -0.067005      0.046541      0.045993
Fe	      6.31034      4.32018      6.37606        -0.004465     -0.011568     -0.080623
O	      1.93638      2.01981      2.06791        -0.162983     -0.012100      0.003564
O	      4.26423      4.26327      2.11657        -0.009318      0.068187      0.123617
O	      4.24375      2.15429      4.22587        -0.002856      0.029367      0.021894
O	      6.31669      4.19947      4.14725        -0.002520      0.018085     -0.160974
O	      6.17734      2.12766      6.25900         0.045215      0.049076      0.045135
O	      8.40109      4.39734      6.08641         0.082948      0.005501     -0.147917
O	      2.19637      4.23769      4.11727         0.353073     -0.001088     -0.017113
O	      4.19888      6.28250      4.16428        -0.025478     -0.164611     -0.120557
O	      4.19416      4.24364      6.16701        -0.093067     -0.001767     -0.113469
O	      6.30791      6.41377      6.28238         0.017214      0.010105     -0.016748
O	      6.32038      4.14551      8.37872        -0.016366     -0.219202      0.041126
O	      8.51569      6.37101      8.26549         0.093411      0.005805     -0.019923
O	      2.24629      6.35544      6.34231        -0.158701     -0.033738      0.062240
O	      4.22588      8.38908      6.20215         0.014455      0.119934     -0.079411
O	      4.11590      6.43872      8.42964         0.001158      0.017491      0.194154
O	      6.30495      8.62746      8.47025         0.012786     -0.019726      0.016800
O	      6.20600      6.50483     10.38775        -0.170478      0.093647      0.032744
O	      8.33871      8.67588     10.46437        -0.044581      0.155172      0.005786
