# total energy = -255.10305020 eV
 
CRYSTAL
PRIMVEC
0.033182 6.249921 6.387746 
6.280531 0.014041 6.406652 
4.199295 4.191676 -0.002675 
PRIMCOORD
36 1
Li	      8.38351      8.30672     12.70421         0.015710      0.001666     -0.028652
Li	      6.35811      8.34141     10.65697         0.000501     -0.019093     -0.054643
Li	      6.25789      2.13419      8.51973         0.043367     -0.015879     -0.004614
Li	      4.18829      4.22554      4.38692         0.003241     -0.008523     -0.005527
Li	      6.22196      4.13580      6.39716        -0.002252     -0.049492      0.009126
Li	      2.17178      6.27828      4.33834         0.020416      0.013484      0.010886
Li	      2.18493      4.21905      6.40718         0.006847     -0.005060      0.083167
Li	      4.16188      6.20641      6.34546        -0.054887      0.002875      0.006893
Li	      6.31814      6.29981      8.49944        -0.046845      0.055463      0.013435
Ti	      0.12489      6.26923      6.41561         0.175270      0.063128     -0.016196
Ti	      8.36391      4.21762      8.48822         0.024193     -0.037520     -0.014524
Ti	      6.22210      6.26410      4.37525        -0.117373     -0.123461      0.238556
V	      2.04312      0.05533      2.09999         0.010401     -0.010025      0.017552
Cr	      4.33015      8.29018      8.47340         0.025944     -0.056556      0.018399
Cr	      8.38718      4.17496      4.31231        -0.050064      0.005464     -0.039615
Cr	      0.03861      4.16770      4.26144        -0.044255     -0.002533     -0.025021
Cr	      4.18785      2.13151      6.38701         0.025119      0.028011      0.028799
Cr	      8.41340      8.33677      8.50663        -0.036868      0.045251      0.016355
O	      2.17766      2.20525      2.18584        -0.076142      0.145019      0.036934
O	      4.15443      4.13933      2.09472        -0.142654      0.083573     -0.086327
O	      4.12245      2.02536      4.37397        -0.053393      0.022121      0.105873
O	      6.35729      4.29818      4.24487        -0.005811      0.157227      0.025183
O	      6.19682      1.97039      6.39899         0.041925     -0.131120     -0.014523
O	      8.37003      4.24904      6.37664         0.021260      0.000774      0.027991
O	      2.08154      4.10065      4.13828        -0.002033     -0.040914      0.006430
O	      4.32491      6.31394      4.26367         0.154144      0.014402      0.025787
O	      4.22716      4.10188      6.51264        -0.004573      0.024488     -0.011173
O	      6.34960      6.31545      6.25071        -0.000183     -0.005385     -0.248404
O	      6.30212      4.17727      8.60612         0.051241     -0.000078      0.015993
O	      8.38335      6.23453      8.44708         0.014718     -0.057402     -0.022430
O	      2.04291      6.29344      6.36363        -0.145304     -0.023020     -0.056830
O	      4.18684      8.47338      6.26718         0.022730      0.082497     -0.095487
O	      4.20367      6.21120      8.66424         0.076062     -0.067370      0.006035
O	      6.39189      8.38765      8.55124         0.047552     -0.061113     -0.010945
O	      6.24081      6.19156     10.76617         0.024518     -0.007057      0.019194
O	      8.49718      8.42077     10.56152        -0.022519     -0.023841      0.022320
