# total energy = -232.78476666 eV
 
CRYSTAL
PRIMVEC
-0.001123 6.344100 6.286949 
6.233961 0.003216 6.282452 
4.145131 4.215638 0.013103 
PRIMCOORD
36 1
Li	      0.03905      6.34216      6.25198         0.005031      0.068925     -0.006615
Li	      2.10840      8.38619      6.27033         0.022009     -0.065009     -0.006478
Li	      2.10078      6.36029      8.36820        -0.023415     -0.033034     -0.033203
Li	      6.29095      8.43712     10.50407         0.008215      0.067758      0.005385
Li	      8.29904      4.20123      8.35881        -0.076559      0.007518      0.005031
Li	      6.19957      4.19149      6.30349        -0.014289     -0.051554      0.061909
Li	      8.25374      6.43804     10.51754        -0.004014      0.108612      0.029752
Li	      4.10243      6.35873      6.33121        -0.055296      0.041965      0.001503
Li	      4.15580      4.25323      8.39254         0.014596     -0.029254      0.019751
Ti	     10.30347      6.27121      8.28626        -0.113190      0.142297     -0.392541
Ti	      6.16001      6.26573      4.23271        -0.072651     -0.051736     -0.162757
Ti	      2.08069      4.41175      6.32026        -0.104727      0.593798      0.318537
V	      8.34787     10.48392     10.54798        -0.185202      0.071046     -0.039068
V	      6.25284      6.27239      8.39469         0.175952      0.286475     -0.197699
Co	      4.18973      2.13321      6.28121        -0.165757     -0.037670      0.074809
Cu	      4.10637      8.41687      4.24260         0.032813     -0.052182     -0.076600
Ni	      4.11019      2.15416      2.03660         0.027817      0.103516      0.020084
Ni	      4.16230      4.18164      4.18528         0.016398     -0.096312     -0.012036
O	      1.99343      2.15191      2.22513        -0.120628     -0.107191      0.102067
O	      4.12289      4.32636      2.12967         0.011916      0.124292     -0.101117
O	      4.04194      2.11555      4.10837        -0.028374     -0.186851      0.096531
O	      6.29162      4.30493      4.20079         0.104677      0.075973     -0.040052
O	      6.26072      2.13785      6.42084        -0.272146      0.038568      0.163997
O	      8.33481      4.31357      6.07181         0.085792      0.416903      0.225164
O	      2.04544      4.07652      4.31433         0.057427     -0.101412     -0.002021
O	      4.24499      6.20844      4.12625         0.159900     -0.042910      0.077030
O	      4.03668      4.16951      6.23657         0.083575     -0.459516      0.112138
O	      6.21669      6.31982      6.25593         0.226657      0.004702      0.172723
O	      6.22840      4.20533      8.44614         0.003461     -0.646228      0.053736
O	      8.35128      6.32494      8.43179        -0.170540     -0.068113      0.124777
O	      2.10891      6.24357      6.28218         0.008536     -0.568950     -0.032886
O	      4.24480      8.43652      6.28210         0.033438     -0.022868     -0.059195
O	      4.20767      6.41138      8.54957         0.287406     -0.175109     -0.152588
O	      6.19266      8.34001      8.25106         0.126135      0.450076     -0.210536
O	      6.16772      6.46154     10.38221         0.080843      0.136895     -0.186478
O	      8.37475      8.60646     10.51196        -0.165806      0.056577      0.046948
