# total energy = -231.35522869 eV
 
CRYSTAL
PRIMVEC
-0.035229 6.312940 6.208099 
6.299239 -0.041152 6.214638 
4.160093 4.173210 0.012083 
PRIMCOORD
36 1
Li	     10.38771     10.42687     12.39156        -0.033313     -0.121158      0.067417
Li	      8.36739      8.40155     12.38256         0.134263      0.038815     -0.011102
Li	      6.24702      6.30438      4.19583         0.067789      0.018492     -0.048374
Li	      4.12111      4.17831      4.18039        -0.009201     -0.080124     -0.053650
Li	      8.28836      6.25164      6.26060        -0.142103      0.032630     -0.031603
Li	      6.29943      4.18280      6.25251         0.020444      0.077844     -0.035097
Li	      6.27255      4.19199     10.32411        -0.050233     -0.003998      0.067011
Li	      8.36036      6.23590     10.33346         0.015072      0.049069      0.061263
Li	      6.29503      6.22869      8.29097        -0.111991      0.105084     -0.031922
Ti	      2.03870      0.05804      2.05610        -0.026151      0.101757      0.146528
Ti	      4.14729      8.37793      8.28052         0.001384     -0.065253      0.297625
Ti	      4.27660      6.21390      6.05356        -0.002758     -0.028685      0.036460
V	      6.32107      1.97918      4.32307         0.571960     -1.097901     -0.563980
V	      8.18174      4.33871      8.31277         0.373343     -0.292293      0.048324
Co	      8.39470      8.29771      8.29660        -0.125398      0.137012     -0.018663
Cu	      8.40801      4.09398      4.27169         0.243509     -0.203275      0.493983
Cu	     10.38552      6.29944      8.31359        -0.019118     -0.004358      0.033607
Ni	      2.09972      4.17640      6.07843         0.010632      0.066245     -0.081760
O	      2.22646      1.99358      2.10437        -0.040052     -0.086783      0.016155
O	      4.25557      4.02557      2.06712         0.030815      0.084902     -0.032805
O	      4.29695      2.00953      4.02889         0.151267      0.829284     -0.173413
O	      6.35873      4.04153      4.01632        -0.793643     -0.337708     -0.146647
O	      6.30549      2.07897      6.05157         0.056818      0.025560      0.321236
O	      8.39350      4.10790      6.52228         0.014304     -0.017259     -0.078097
O	      2.09442      4.17956      3.96217        -0.055336      0.029031      0.123427
O	      4.13743      6.26049      4.26327        -0.004858      0.002932     -0.068528
O	      4.13813      4.27613      6.28170         0.213711     -0.017808     -0.090703
O	      6.14083      6.31787      6.19113         0.048805     -0.214324     -0.019376
O	      6.30656      4.23159      8.30988        -0.359602     -0.042430      0.030667
O	      8.28673      6.21482      8.28950         0.047277      0.299106      0.028300
O	      2.13207      6.23824      6.33083        -0.039442      0.168833     -0.117844
O	      4.19678      8.28612      6.31784        -0.151521      0.006526     -0.229924
O	      4.04591      6.37300      8.17472         0.085267     -0.042565     -0.119169
O	      6.16772      8.46169      8.31993         0.071937     -0.114545      0.035180
O	      6.16016      6.40785     10.37400         0.594919      1.178890      0.054833
O	      8.23598      8.40447     10.28496        -0.788797     -0.481542      0.090643
