# total energy = -229.52847863 eV
 
CRYSTAL
PRIMVEC
0.028562 6.048808 6.169202 
6.015787 0.033699 6.164023 
4.027838 4.046491 0.004953 
PRIMCOORD
36 1
Li	      8.07698      8.13807     12.26894        -0.013905      0.017785     -0.119927
Li	      6.00897      4.11016      2.09488         0.029358     -0.050281      0.155135
Li	      8.06207     10.08138     10.29637        -0.112346     -0.001082      0.012295
Li	      5.99031      2.08522      4.09975         0.069717      0.065679      0.006356
Li	      0.05639      2.02767      2.10944         0.017866      0.036200      0.062612
Li	      2.08521      2.05655      4.07599        -0.182770     -0.128915      0.081750
Li	      3.98257      2.07059      6.04490        -0.042142      0.049105      0.039636
Li	      8.06404      6.13145     10.25078        -0.019466     -0.074104      0.035205
Li	      2.03856      4.03028      6.11888         0.004935     -0.063159      0.022277
Ti	      6.06320      0.19866      6.16941         0.051129     -0.470931     -0.709239
Ti	      3.93131      6.15766      6.12982        -0.164495      0.098351      0.131466
Ti	      6.05080      6.15521      8.33688        -0.491830     -0.413842      0.154216
V	      2.06731      3.96480      2.05738         0.409402      0.190679     -0.315752
V	      6.02497      4.05866      6.09283         0.651524     -0.698589      0.267011
Co	      4.03771      8.03207      4.12999         0.508064     -0.211993     -0.048034
Cu	      3.94912      1.99351      2.22066         0.297086     -0.263527     -0.515624
Cu	      3.92906      4.00803      4.15131         0.525962      0.455181     -0.083918
Cu	      8.03418      8.04097      8.31800        -0.214021     -0.142208     -0.147701
O	      2.08480      2.12154      2.07432        -0.692183     -0.817516     -0.137507
O	      4.06010      4.18153      1.82146         0.553904      0.244985      0.799139
O	      3.99567      2.15974      4.10865         0.093671     -0.718176      0.817503
O	      6.04066      4.05738      4.35305         0.164768      0.151640     -1.718265
O	      6.05947      2.02067      6.09538        -0.030074      0.506006      0.063673
O	      8.12790      4.08391      6.19969        -0.448436      0.008707     -0.522543
O	      1.98121      4.05707      3.95671        -0.587422      0.176131      1.164556
O	      4.03816      5.99595      4.28598         0.169446      0.049136     -1.041845
O	      4.12323      4.12928      6.32348        -0.963801     -0.477000     -0.010871
O	      5.92367      5.98976      6.28338         0.622833      0.770199     -0.362755
O	      6.14721      4.04975      8.01605        -0.448102     -0.233553      0.617750
O	      7.88791      6.02305      8.19165         1.386225     -0.123027     -0.139549
O	      2.01685      6.05034      6.16687         0.104891     -0.161276     -0.013038
O	      4.06376      8.02142      6.23055         0.017067      0.733440      0.045126
O	      4.09252      5.93598      8.13589        -0.664633      0.022330      0.503642
O	      5.91656      7.94092      8.25924         0.155153      1.171050     -0.092105
O	      6.03157      6.00862     10.26102         0.035221      0.300748      0.174249
O	      8.21289      8.08204     10.18593        -0.792594      0.001827      0.825078
