# total energy = -233.58085092 eV
 
CRYSTAL
PRIMVEC
-0.020010 6.083085 6.323339 
6.435865 -0.029504 6.333009 
4.296912 4.068043 -0.025536 
PRIMCOORD
36 1
Li	      8.47898      2.04739      6.19867        -0.068533     -0.004929      0.047377
Li	      4.29161      2.05291      2.10393         0.007397      0.004779      0.030928
Li	      8.61575     10.02497     10.52507        -0.036268     -0.000291      0.004667
Li	      6.50038      8.08564     10.60869        -0.013577      0.040545     -0.029580
Li	      8.38187      4.08394      8.36382        -0.018251      0.014040     -0.058364
Li	      4.33382      2.02203      6.38783         0.031843      0.015816      0.079322
Li	      6.51785      3.96804      6.44856         0.071140     -0.028371     -0.010631
Li	      6.31525      4.05708     10.39273         0.008636     -0.076950      0.003758
Li	      4.42040      3.99408      8.50887         0.005311     -0.112949      0.010670
Ti	     10.52585      4.11448      6.23220        -0.456374      0.192151      0.199398
Ti	      6.48215     10.04834      8.47979         0.023177     -0.012836      0.191193
Ti	      2.28394      2.09941      4.15925         0.261820      0.006760     -0.205842
V	      6.44119      8.09850      6.30398         0.052106      0.062024      0.129283
V	      4.26968      6.12384      6.31221        -0.015444      0.014053     -0.029571
Co	      6.34678      2.08080      8.43390         0.203622     -0.043250     -0.205460
Co	      8.49422      6.11213     10.47077        -0.009675      0.798855     -0.069854
Cu	      4.36168      4.02455      4.22740         0.119106     -0.038552     -0.021385
Ni	      6.44748      6.02857      8.49988         0.093273      0.186069     -0.073210
O	      2.12320      1.96026      2.26356         0.047611      0.018438      0.121546
O	      4.51900      4.08386      1.91859        -0.139499      0.358672     -0.032426
O	      4.13458      2.09578      4.22360        -0.257392     -0.084970     -0.003444
O	      6.55120      4.11632      4.05562         0.128332      0.041999     -0.128700
O	      6.40950      1.92099      6.31606         0.010783     -0.172661      0.117323
O	      8.72343      4.01216      6.31379         0.449212     -0.006556     -0.041267
O	      2.07816      4.06519      4.27346        -0.145436     -0.324927      0.128922
O	      4.40015      6.00158      4.28742        -0.013764      0.134288     -0.247839
O	      4.08412      4.10712      6.30274        -0.044125     -0.015691      0.029215
O	      6.37205      6.10335      6.23756        -0.021263      0.042942     -0.069024
O	      6.42884      4.06152      8.38756        -0.296773     -0.645494      0.123628
O	      8.54187      6.06127      8.58268        -0.047939     -0.472062     -0.824977
O	      2.15287      6.06819      6.33578        -0.056631     -0.199006      0.422284
O	      4.41313      8.14171      6.32123         0.014063      0.003263     -0.033650
O	      4.15834      6.09319      8.31940        -0.100094     -0.038936     -0.004044
O	      6.39762      8.14106      8.39742        -0.015297      0.239208      0.007769
O	      6.40041      6.05926     10.63880         0.260223     -0.038499      0.045375
O	      8.59158      7.90723     10.53365        -0.031320      0.143026      0.396610
