# total energy = -228.75251344 eV
 
CRYSTAL
PRIMVEC
-0.014545 6.371576 6.130959 
6.331951 -0.011967 6.128441 
4.204543 4.229683 0.008887 
PRIMCOORD
36 1
Li	      4.16035      4.16409      0.18333        -0.050011      0.004837      0.005130
Li	      2.15249      2.21291      0.15795        -0.002272      0.097367     -0.043900
Li	      4.05345      2.17014      1.98077        -0.002585      0.021654      0.034025
Li	      2.17706      4.13135      1.92521         0.020661     -0.099940      0.023333
Li	      2.10092      2.13946      3.96162         0.064284     -0.016326      0.074750
Li	      8.40478      6.32919      6.25056         0.017944      0.038790     -0.200647
Li	      6.31809      4.27159      6.22803        -0.032237     -0.018483     -0.082626
Li	      4.20672      6.32771      6.24531         0.066248     -0.047764     -0.006895
Li	      4.25868      4.25294      8.08098         0.009670      0.143660     -0.101913
Ti	      8.40489      4.27885      4.15436        -0.361513      0.272970      0.252462
Ti	      6.28451      2.13799      4.19116        -0.264274      0.350588      0.396927
Ti	      4.19563      8.34163      4.09244         0.198071     -0.052645      0.160880
V	      8.37997      6.37849     10.18512         0.234388     -0.272409     -0.037386
V	      6.37153      8.40732      6.19983        -0.098432     -0.303404     -0.200012
Cu	      4.19155      4.24159      4.06656         0.116369     -0.178039     -0.075441
Ni	      2.11304      0.07797      1.97115         0.003479     -0.095685      0.135648
Ni	      6.37342      2.08123      8.07083         0.123486     -0.025440     -0.123871
Ni	      6.31194      6.33850      8.10819        -0.232220      0.019250     -0.126137
O	      2.05568      2.07474      2.04726         0.107067      0.163162     -0.047227
O	      4.26298      4.28160      2.15650        -0.118436     -0.025941     -0.322625
O	      4.36921      1.98265      4.07565         0.211633     -0.251475      0.007334
O	      6.44501      4.08478      4.08732         0.306784     -0.141660      0.064249
O	      6.33700      2.10158      6.00424        -0.029812     -0.033419     -0.267450
O	      8.43516      4.23314      5.99470         0.008572     -0.003910     -0.071099
O	      1.96246      4.32653      4.13221        -0.404402      0.176248      0.006300
O	      4.10710      6.46790      4.07271        -0.352707      0.494758      0.085479
O	      4.08292      4.24200      5.99423         0.064903      0.069093      0.511577
O	      6.28275      6.57218      6.09456        -0.004089     -0.132401     -0.062725
O	      6.30941      4.27907      8.29192        -0.017112     -0.062313     -0.005911
O	      8.41677      6.37105      8.26916        -0.024098     -0.003195      0.701839
O	      2.08708      6.14621      6.06463        -0.056907      0.372372     -0.675741
O	      4.27943      8.50103      6.00700        -0.063672     -0.026017     -0.002764
O	      4.23663      6.32593      8.30514        -0.013819     -0.016638     -0.078447
O	      6.36955      8.47094      8.19115         0.069599     -0.024560     -0.004040
O	      6.27706      6.40235     10.19242         0.461005     -0.104451      0.093440
O	      8.43379      8.47272     10.27807         0.044434     -0.288635     -0.016516
