# total energy = -102.40120727 eV
 
CRYSTAL
PRIMVEC
3.939448 -0.000419 0.000261 
1.970872 4.776528 -6.554040 
1.969888 4.487015 2.000530 
PRIMCOORD
16 1
Li	      3.93999      0.19283     -0.21313         0.001598     -0.005306      0.004645
Li	      1.97070      2.76801     -0.28761        -0.000332      0.002552     -0.017141
Li	      3.94070      4.71785     -0.11065         0.000997     -0.004234     -0.005403
Li	      1.97120      4.38820     -2.02997        -0.002938     -0.018091      0.017443
Ti	      3.94041      4.60334     -4.31882         0.001621     -0.064754      0.247610
Ti	      5.91076      7.05808     -4.67918         0.001339      0.302594     -0.451930
Ni	      3.94063      2.12637     -2.05173         0.000580      0.153051      0.029517
Ni	      3.94109      6.68468     -2.20677         0.000714      0.023305     -0.050567
O	      3.94119      4.67451     -2.47103        -0.002468     -0.077270     -0.330495
O	      5.91097      7.13700     -2.41172        -0.006582      0.150581     -0.057849
O	      3.94020      2.23118      0.05620        -0.000943     -0.011163      0.522470
O	      5.91057      4.64866     -0.12681        -0.002687     -0.162572     -0.005871
O	      1.97089      2.39844     -2.24887         0.003391      0.027743      0.139409
O	      5.91077      4.89265     -4.47316         0.003666      0.011528      0.002405
O	      3.94107      6.71297     -4.39949         0.001330     -0.022786     -0.076619
O	      5.91102      8.88339     -4.39880         0.000713     -0.305178      0.032378
