# total energy = -228.80685681 eV
 
CRYSTAL
PRIMVEC
0.017373 6.340612 6.355820 
6.208314 -0.011582 6.384761 
4.127172 4.234202 0.004335 
PRIMCOORD
36 1
Li	      2.18937      8.25123      6.37352        -0.062485      0.020699     -0.038614
Li	      2.08388      6.42039      8.23812        -0.047422     -0.005301      0.051061
Li	      4.15746      8.38643      8.28028         0.046400     -0.016789     -0.058147
Li	      4.14936      6.33920     10.57605        -0.042597      0.034465     -0.018127
Li	      2.03953      2.15414      4.25270         0.038835     -0.032191      0.002022
Li	      8.28216      6.36262      6.41336        -0.036714      0.012877      0.031537
Li	      2.14517      6.30845      4.41700        -0.008446     -0.022689     -0.066849
Li	      1.95514      4.40529      6.26515         0.078433     -0.080813     -0.048077
Li	      3.97902      6.49052      6.35955         0.055157     -0.050574      0.016097
Ti	      2.21383      4.04908      2.15994         0.250569     -0.206359      0.125358
Ti	      6.24846      4.31488      6.33661         0.009224      0.239559     -0.089116
Ti	      8.17967      8.52704      8.50374        -0.143801      0.176760     -0.103074
V	      6.14002      2.09027      4.37075         0.123741      0.004788     -0.065038
V	      6.23150      6.34862      8.51388        -0.055376      0.049465      0.004648
Cu	      4.16033      6.25112      2.13699         0.052715     -0.101615     -0.098158
Cu	      4.11211      4.31330      4.29744         0.013845     -0.080803      0.128822
Ni	      0.10413      6.23026      6.28795        -0.123207      0.070199      0.007921
Ni	      4.11891      8.34629      4.31564        -0.128753      0.075895      0.063992
O	      2.04968      2.20603      2.13308         0.060799      0.173050      0.012752
O	      4.04444      4.12821      1.98340        -0.238208     -0.082350      0.048032
O	      4.34448      2.24894      4.28245        -0.195051      0.015090      0.032312
O	      6.18584      4.19033      4.44483         0.103813      0.049822      0.212815
O	      6.23924      2.17083      6.33595        -0.031526      0.117472     -0.038288
O	      8.15198      4.25887      6.55097        -0.090267      0.015423      0.023915
O	      2.09782      4.22131      4.08844         0.063248     -0.085540     -0.251514
O	      4.14644      6.27985      4.08987         0.073812     -0.065488      0.000960
O	      4.28466      4.16947      6.60728         0.032873      0.001476      0.267070
O	      6.21449      6.19888      6.49732         0.008330     -0.214173     -0.174205
O	      6.20450      4.29047      8.54384        -0.035553      0.116293     -0.134182
O	      8.22977      6.39398      8.51069        -0.005145      0.085461      0.039161
O	      2.05882      6.31643      6.34460         0.237774      0.059522     -0.090576
O	      4.13897      8.46941      6.24147        -0.078311     -0.127895      0.246830
O	      4.21718      6.21276      8.52450        -0.084440     -0.163736      0.012174
O	      6.28140      8.43517      8.62215         0.168172      0.031658      0.008885
O	      6.16891      6.47421     10.56151        -0.062920     -0.069333     -0.019478
O	      8.14900      8.48278     10.50266         0.052481      0.055675     -0.042921
