# total energy = -229.08318584 eV
 
CRYSTAL
PRIMVEC
0.014034 6.289261 6.301268 
6.246943 -0.003557 6.319168 
4.153677 4.193666 0.008697 
PRIMCOORD
36 1
Li	      8.30080      2.28075      6.27450         0.077409     -0.069899      0.007501
Li	      6.25236      4.13511      2.23714        -0.012361      0.001437     -0.028320
Li	      8.30120      4.18201      4.39001         0.062455      0.039158     -0.040630
Li	      8.30471      4.22585      8.34716         0.033881     -0.036073      0.104452
Li	      6.24774      6.18904      4.23042         0.003691      0.056321      0.009613
Li	      4.26940      4.16103      4.21648        -0.120241     -0.035824      0.039133
Li	      8.36978      6.16266      6.38719         0.034354      0.122861     -0.003202
Li	      6.26536      4.29292     10.45027         0.017582     -0.025567      0.018920
Li	      8.25561      6.27534     10.51360         0.063432     -0.029948     -0.018827
Ti	      4.28208      6.12875      2.17939         0.150828     -0.139728      0.093795
Ti	      2.09774      4.19328      6.10392        -0.062570     -0.021109     -0.492761
Ti	      8.32437      8.33597      8.54492        -0.057009     -0.002694      0.225295
V	      4.05466      2.10598      2.17495         0.119736      0.058518     -0.089263
V	      4.10734      6.27775      6.18320        -0.035054      0.024816     -0.102024
Cu	      6.22086      6.34730     12.47761         0.268034      0.026128      0.122503
Cu	      6.25930      2.11450      4.31872        -0.043859     -0.031828     -0.075015
Cu	      6.35677      4.19591      6.27998         0.084271      0.094874      0.099335
Ni	      6.24965      6.29455      8.46333         0.035697     -0.057942     -0.082120
O	      8.46243      4.23921      6.33969        -0.293040      0.062773     -0.035269
O	      2.07548      2.06047      2.15009        -0.238347     -0.022651     -0.004646
O	      4.16169      4.20491      2.11650         0.040436      0.067360      0.100544
O	      4.18178      2.08395      3.92743         0.036120     -0.035327      0.281123
O	      6.24042      4.04358      4.36075         0.079705      0.034436     -0.115232
O	      6.29678      2.20425      6.59631        -0.043578     -0.091951      0.100330
O	      2.02921      4.16739      4.30569         0.015158     -0.028437      0.386336
O	      4.17935      6.26783      4.13991        -0.022859     -0.018450     -0.092818
O	      4.00358      4.20429      6.38260        -0.087368     -0.142200     -0.010467
O	      6.13582      6.31720      6.32628         0.153501      0.269635     -0.029648
O	      6.12525      4.20336      8.36716        -0.002730     -0.096663      0.071665
O	      8.40637      6.42763      8.46234         0.014794      0.041175     -0.078654
O	      2.11132      6.15677      6.24336        -0.111938     -0.003119      0.011437
O	      4.23262      8.30605      6.49416        -0.075590      0.040874     -0.146193
O	      4.14785      6.30647      8.25705        -0.085269     -0.105924      0.112520
O	      6.24583      8.35321      8.28292         0.028839      0.097042     -0.126216
O	      6.25679      6.44467     10.47960        -0.032325     -0.068299     -0.033762
O	      8.34781      8.44358     10.36859         0.004214      0.026224     -0.179435
