# total energy = -188.74964495 eV
 
CRYSTAL
PRIMVEC
-0.035117 6.285650 6.121329 
6.314507 -0.032601 6.119766 
4.186246 4.165468 0.001586 
PRIMCOORD
36 1
Li	      0.04633      6.28009      6.07283         0.160209     -0.077222     -0.004758
Li	      2.08158      8.25110      6.10444         0.104395     -0.182467      0.004142
Li	      2.07692      6.25636      8.07728         0.014147     -0.006874     -0.087397
Li	      4.24004      8.30555      8.05375         0.044874     -0.009933     -0.076929
Li	      6.24321      4.15276      6.06136        -0.014055      0.019537     -0.071062
Li	      2.04367      6.31216      4.20254        -0.029257      0.029839      0.113123
Li	      2.07413      4.23117      6.13847        -0.032061      0.136687     -0.009719
Li	      4.13107      6.28872      6.17584        -0.167380      0.087843      0.000514
Li	      6.18034      6.33331      8.16213        -0.047469      0.032193     -0.002837
Sc	      8.40227      4.14646      8.07507         0.049785     -0.021735      0.060264
Co	      6.27596      6.22589      4.12944        -0.071999     -0.002986     -0.043803
Cu	      4.17258      6.27064     10.18748        -0.158522      0.050335     -0.070808
Cu	      6.32451      2.05089      8.11421         0.047307     -0.060899     -0.030091
Cu	      4.20456      4.19502      4.12445        -0.015857     -0.069298      0.079802
Cu	      4.18115      2.09450      6.10326        -0.031895     -0.052377      0.072710
Cu	      4.14804      8.36710      4.16501         0.054721      0.023323      0.155830
Cu	      4.16151      4.21091      8.13208        -0.055782      0.036756     -0.169281
Cu	      6.33200      8.25453     10.21692         0.124012     -0.028639     -0.099012
O	      2.08536      6.27995      6.09649        -0.030639     -0.040160      0.017276
O	      4.15103      8.35457      6.03156        -0.014801      0.062889     -0.035124
O	      4.17858      6.17823      8.23609         0.017898      0.101309      0.000572
O	      6.37675      8.32146      8.33198        -0.122125     -0.032457     -0.101026
O	      6.17985      6.24878     10.19465         0.152935     -0.095388     -0.016793
O	      8.39158      8.43798     10.15325        -0.044398     -0.268135      0.275020
O	      2.02073      2.11402      2.19331         0.048656      0.043406      0.030635
O	      4.15099      4.25073      2.15088        -0.025210     -0.009381     -0.059473
O	      4.04860      2.06610      4.10775        -0.009472      0.129035     -0.226338
O	      6.27080      4.34626      4.06765         0.058167      0.049515      0.004579
O	      6.21378      2.06213      5.98777        -0.065658      0.028755      0.062270
O	      8.34710      4.21646      6.06054        -0.070834      0.012758      0.002279
O	      2.12085      3.99566      4.09018        -0.060532     -0.032853     -0.009777
O	      4.36041      6.21199      4.13623         0.085772      0.181777      0.084713
O	      4.18853      4.08583      6.11148         0.049585      0.001205     -0.126589
O	      6.36463      6.24276      5.95540         0.013580     -0.024799     -0.003157
O	      6.25649      4.07842      8.30046         0.060800      0.041139      0.121886
O	      8.47004      6.29071      8.10631        -0.018900     -0.052699      0.158362
