# total energy = -183.55480291 eV
 
CRYSTAL
PRIMVEC
-0.004556 6.309984 6.217572 
6.070943 0.015184 6.196914 
4.038487 4.183988 0.019184 
PRIMCOORD
36 1
Li	      8.04807      4.17570      4.20118        -0.065583      0.000634      0.058990
Li	      2.00278      4.21198      2.11866         0.055903      0.053315      0.009741
Li	      6.06067      6.33002      4.33577         0.026237      0.040557      0.048850
Li	      3.96677      2.20105      6.16415        -0.010656      0.130876     -0.038595
Li	      6.04472      4.27945      6.14413        -0.022588      0.087916     -0.215977
Li	      2.06375      6.25554      4.12875        -0.000425     -0.043133      0.025259
Li	      2.13802      4.12354      6.13171         0.002452     -0.085940     -0.051740
Li	      4.07771      6.20490      6.17624         0.021532     -0.137687     -0.082572
Li	      4.04064      4.18049      8.20876         0.018503      0.013500     -0.080162
Sc	      6.10907      6.32340      8.21156         0.049924     -0.268764      0.145868
Cu	     10.07509      4.20140      6.19745        -0.092530      0.020637      0.262037
Cu	      4.06242      8.35547      4.16896         0.034261     -0.102422      0.676189
Ni	      2.00349      2.09025      0.04638         0.189576      0.172173     -0.777522
Ni	      2.04813      6.31288      8.27426         0.588055     -0.197234      0.248718
Ni	      4.02755      2.08462      2.11439        -0.136048      0.212790     -0.121075
Ni	      6.06651      2.11586      4.14578         0.123684      0.195765      0.129720
Ni	      6.02891      2.15999      8.26491        -0.002183     -0.034161      0.188168
Ni	      4.02211      4.22667      4.15490         0.034700     -0.213382     -0.313208
O	      1.95826      6.47618      6.38668        -0.000391      0.119476     -1.041280
O	      3.88302      8.46981      6.15561         0.176429     -0.066029     -0.169175
O	      1.98841      2.09215      1.90020         0.026919     -0.124271      0.412704
O	      4.14436      4.17516      2.10490        -0.736788     -0.049901     -0.172368
O	      4.12852      2.25931      4.10767        -0.374062     -0.187076      0.227017
O	      5.97170      4.13336      3.98118         0.249553     -0.033331      0.848416
O	      6.21565      2.04846      6.25459        -0.255541      0.096027      0.028218
O	      8.12488      3.98899      6.23094        -0.163121     -0.068694      0.048558
O	      2.07769      4.20243      4.15864        -0.745027     -0.073510      0.036127
O	      4.04959      6.16358      4.04689         0.010055      0.123975      0.043724
O	      4.06749      4.22334      5.98042         0.005561      0.014504      0.574363
O	      6.05606      6.25483      6.27659        -0.048847     -0.009361     -0.029651
O	      6.04178      4.18933      8.50113         0.021135      0.321130     -0.366610
O	      8.13986      6.32856      8.22690        -0.132527      0.039735      0.004720
O	      3.93633      6.39109      8.30817         0.467296     -0.268994     -0.006952
O	      6.02877      8.41945      8.32393         0.345590      0.156048     -0.309246
O	      6.06165      6.40873     10.45054        -0.050570      0.156604     -0.226570
O	      8.04622      8.37970     10.58147         0.389521      0.008227     -0.014682
