# total energy = -184.33912989 eV
 
CRYSTAL
PRIMVEC
0.014675 6.187873 6.204906 
6.185026 0.010466 6.209160 
4.131276 4.135963 -0.000917 
PRIMCOORD
36 1
Li	      2.11451      6.14792      8.22154        -0.003276     -0.073476      0.009601
Li	      4.11888      2.09178      2.09165         0.053239     -0.013042      0.010146
Li	      6.17469      8.26083     10.26141        -0.032246     -0.003905     -0.142360
Li	      2.08479      4.11280      2.12048        -0.001798      0.050379      0.112179
Li	      8.16269      6.26308      6.20697         0.011600     -0.003671      0.043163
Li	      2.02907      6.17139      4.16409        -0.010478     -0.018034     -0.012916
Li	      6.22392      8.25243      6.25047        -0.009003     -0.039940      0.068048
Li	      4.14224      6.18805      6.22079        -0.031300      0.060823     -0.029759
Li	      6.23109      6.23945      8.27905         0.040510      0.086926      0.019107
Sc	      4.10820      6.16430      2.08857        -0.139185     -0.082260      0.030648
Cu	      4.13630      6.19726     10.30134        -0.113455      0.130705     -0.096436
Cu	      4.11097      4.07689      4.15400        -0.022536      0.050882     -0.138144
Cu	      0.03734      4.14485      4.16580         0.158689     -0.123195     -0.042075
Ni	      4.15404     10.31130      6.22223         0.080360      0.089714      0.140379
Ni	      2.10244      8.24459      6.20504        -0.028205      0.024723      0.082841
Ni	      2.09569      2.06420      4.13299        -0.022449      0.008975     -0.139588
Ni	      6.20626      4.16714      6.17860        -0.499331      0.619902      0.111977
Ni	      8.22584      8.28210      8.25472        -0.041593     -0.213020      0.040105
O	      4.12862      6.04487      8.36739        -0.028798      0.346791      0.130373
O	      6.36760      8.25159      8.22486        -0.223405      0.039392      0.013854
O	      6.10809      6.12962     10.43646         0.058018      0.092742     -0.289501
O	      2.06101      2.09081      2.16326         0.020279      0.013575     -0.041530
O	      4.09738      4.12164      2.08164        -0.026426     -0.025350      0.394996
O	      4.07048      2.04128      4.12706         0.183465     -0.159286      0.011158
O	      6.17931      4.17258      4.17718         0.218758     -0.191587     -0.149600
O	      6.34674      2.13648      6.18664        -0.100826     -0.057743      0.081287
O	      8.23416      4.01524      6.13663        -0.136929      0.133970     -0.160308
O	      2.06146      4.08025      4.18905        -0.081125      0.208174      0.033089
O	      4.21925      6.19685      4.16589        -0.175951      0.107028      0.068063
O	      4.25656      4.13075      6.17404         0.130532     -0.135068     -0.468195
O	      6.21531      6.07866      6.03461         0.111164     -0.116852      0.220675
O	      6.06812      4.16453      8.30738         0.211081      0.010828     -0.085989
O	      8.24786      6.35942      8.26858         0.061055     -0.186801     -0.036628
O	      1.99332      6.39214      6.18948         0.299491     -0.234623      0.018540
O	      4.01839      8.29291      6.13096         0.187589     -0.299930      0.073256
O	      8.36488      8.34976     10.33771        -0.097516     -0.097743      0.119541
