# total energy = -185.65670595 eV
 
CRYSTAL
PRIMVEC
0.022644 6.213569 6.170150 
6.287174 0.028839 6.164179 
4.202780 4.149703 0.008006 
PRIMCOORD
36 1
Li	      4.25131     10.23416      6.12668        -0.024124      0.060796      0.037035
Li	      2.27877      8.31060      6.15459         0.010531      0.034978     -0.005816
Li	      2.21083      6.21004      8.22131         0.049828      0.037055     -0.029390
Li	      4.11034      2.13063      2.00161        -0.006805     -0.011246      0.001054
Li	      4.21951      6.23740     10.23541         0.023020     -0.008913     -0.025309
Li	      2.18160      4.08794      2.02037         0.010993      0.013064     -0.020189
Li	      4.21011      8.36296      4.22005        -0.023379      0.016663      0.026202
Li	      4.17094      6.33065      6.23182        -0.060749      0.041100      0.052240
Li	      6.22957      6.22313      8.28937        -0.070593     -0.017593      0.059486
Sc	      0.06963      2.03594      2.04890         0.029381     -0.066872     -0.328681
Cu	      6.32612      8.30664     10.26147         0.105584      0.013865     -0.209835
Cu	      2.13187      2.07683      4.07180         0.014374      0.164094     -0.149264
Cu	      6.31377      4.20284      6.18036         0.082322     -0.177978      0.001563
Cu	      8.35465      6.25069     10.30457         0.140055     -0.175063     -0.031361
Cu	      6.20237      8.33888      6.21691         0.451772     -0.410376      0.225153
Ni	      8.38191      6.20208      6.16183         0.307668     -0.100197      0.114006
Ni	      4.19473      4.13423      4.11759        -0.065400     -0.007331     -0.103354
Ni	      4.19822      4.19843      8.23136         0.150855      0.075324     -0.058528
O	      2.10705      6.11587      6.06786         0.053227      0.179163     -0.004100
O	      4.29665      8.29676      6.20496        -0.237186     -0.036536      0.050516
O	      4.20812      6.03596      8.22461         0.059460      0.316605     -0.010199
O	      6.49264      8.32349      8.21438        -0.475998     -0.035366     -0.116525
O	      6.40863      6.34967     10.28784        -0.011120     -0.058746     -0.069296
O	      8.31799      8.23532     10.27582        -0.007802      0.122357      0.075442
O	      2.09768      2.08869      2.17698         0.015848     -0.003136      0.063496
O	      4.18688      4.15786      2.21823         0.014705     -0.029736     -0.172697
O	      4.29564      2.15188      4.14604         0.082719     -0.150029     -0.335256
O	      6.25602      4.15331      4.20372         0.101280     -0.072889      0.027908
O	      6.26563      2.17257      6.09477         0.073155     -0.001281      0.442967
O	      8.29495      4.31201      6.19850         0.004407     -0.438504      0.018925
O	      2.11337      4.16084      4.20299        -0.058302     -0.120239     -0.243528
O	      4.11785      6.13141      4.13305        -0.223145      0.116047      0.118029
O	      4.19624      3.99862      6.06858        -0.208076      0.521464      0.165144
O	      6.36233      6.21867      5.98624        -0.390018      0.306661      0.148681
O	      6.13426      4.18625      8.14407         0.161751      0.098892     -0.020419
O	      8.40812      6.38934      8.22532        -0.080240     -0.196094      0.305897
