# total energy = -186.16927657 eV
 
CRYSTAL
PRIMVEC
0.028752 6.129566 6.362795 
6.141730 0.014025 6.377269 
4.084871 4.086487 0.018826 
PRIMCOORD
36 1
Li	      8.23078      8.18817     12.71659         0.017621      0.041224     -0.031678
Li	      4.03621      2.08367      2.20923         0.090948     -0.072538     -0.023901
Li	      4.10648      0.02789      4.26306         0.051987     -0.006286      0.034079
Li	      6.12729      2.08039      8.47533        -0.055677     -0.022430     -0.043415
Li	      4.15965      4.06288      4.19670        -0.039235     -0.019151      0.006114
Li	      4.19355      1.98656      6.37812        -0.009873      0.025505      0.054502
Li	     10.15460      8.17658     10.62611        -0.069186      0.020637      0.003961
Li	      8.15343      6.23364     10.54670        -0.013949      0.022479     -0.080879
Li	      6.20402      6.06864      8.62812         0.013311      0.066937      0.021695
Sc	      2.04708      4.10404      6.25420         0.020455     -0.116857      0.091896
Cu	      6.09197      4.12272      2.15206        -0.007812      0.033702      0.117729
Cu	      6.17348      6.07710      4.27677         0.243060      0.153841      0.033302
Cu	      6.20005      4.04629      6.42442         0.204597     -0.108582      0.003155
Cu	      4.08072      6.16169      6.33821        -0.000272      0.129030      0.071379
Cu	      8.20681      8.14660      8.53602         0.045121     -0.333315      0.062779
Cu	      6.11898      0.06874      6.34093        -0.046004     -0.064994      0.010578
Ni	      6.10690      2.04032      4.26660        -0.086177      0.012848     -0.193871
Ni	      2.07127      4.11085      2.19892        -0.137177      0.135156     -0.019440
O	      8.16983      6.20914      8.53379         0.043485      0.044738      0.013330
O	      4.09854      8.16387      6.36783        -0.156259      0.046527     -0.078421
O	      3.95546      6.03445      8.37021        -0.045489      0.292797     -0.192643
O	      6.10426      6.23252     10.77700         0.000368     -0.297385      0.126284
O	      8.06034      8.20186     10.43542         0.434595      0.106335     -0.019355
O	      2.04484      1.93285      2.32333        -0.010610     -0.184125     -0.113649
O	      4.17418      4.12142      1.94216         0.112811     -0.028965     -0.121255
O	      4.16514      2.05857      4.23739        -0.481886      0.020609      0.077008
O	      6.18100      4.07183      4.46283        -0.010296      0.108147      0.190470
O	      6.19516      2.07909      6.30415         0.076063      0.056102      0.277161
O	      8.19611      4.07969      6.60324        -0.093912     -0.088476     -0.257070
O	      2.10669      3.98094      4.17802        -0.002940      0.060451      0.122126
O	      4.20113      6.11438      4.40532        -0.004576     -0.074505     -0.097630
O	      4.16135      4.12920      6.50750        -0.018779     -0.029585      0.170071
O	      6.10541      6.09182      6.30770         0.075330     -0.013666      0.089177
O	      6.13504      4.10919      8.39881         0.221095     -0.080106     -0.086614
O	      2.08512      6.15219      6.21535        -0.026798      0.167242     -0.057729
O	      6.17702      8.31728      8.48143        -0.333938     -0.003337     -0.159247
