# total energy = -103.37660115 eV
 
CRYSTAL
PRIMVEC
2.009736 4.235573 2.043360 
4.107989 -2.141010 -2.085388 
-0.014284 4.314981 -4.229791 
PRIMCOORD
16 1
Li	      2.06108      4.28708      1.88404         0.016786      0.021254     -0.000374
Li	      2.03204      2.30347     -0.10270        -0.011308     -0.003854     -0.004900
Li	      3.94128      4.27232     -0.02350         0.016018      0.030970      0.012216
Li	      2.02050      6.22680      0.05735         0.015374     -0.008563      0.030662
Ti	      3.98686      6.35132     -2.09911        -0.057207      0.013429      0.108658
Ti	      4.09029      4.30323     -4.38327        -0.023818      0.048281     -0.375533
Ni	      4.13301      2.14850     -2.07626        -0.059474      0.004098      0.065312
Ni	      1.99966      4.25212     -2.08206        -0.036161     -0.013720     -0.058000
O	      2.07200      2.17400     -2.23061        -0.117112     -0.096509     -0.176939
O	      4.08336      4.37951     -2.21281         0.104696      0.139080     -0.014191
O	      2.11678      4.11696     -4.22490         0.080315     -0.085574     -0.074050
O	      4.06982      1.93364      0.05757        -0.003460     -0.116886      0.105200
O	      4.09719      0.02134     -1.99293         0.002655     -0.080297      0.358619
O	      1.98677      4.26815     -0.08209         0.152012     -0.001136      0.127206
O	      4.02824      2.30035     -4.18139        -0.120696      0.073415     -0.102563
O	      2.03393      6.37213     -2.16691         0.041379      0.076013     -0.001323
