# total energy = -186.39791269 eV
 
CRYSTAL
PRIMVEC
0.007653 6.221897 6.207464 
6.171662 -0.006096 6.221170 
4.114473 4.157136 -0.004057 
PRIMCOORD
36 1
Li	      2.09415      2.00465      0.12737        -0.047230      0.004857      0.003061
Li	      1.98374      0.06054      2.01845        -0.075423      0.026188     -0.023754
Li	      4.01979      2.15667      1.98496        -0.018788      0.002591     -0.039766
Li	      0.06686      2.06992      2.06040         0.036000     -0.068664     -0.036778
Li	      1.97182      2.15801      4.07399        -0.009089     -0.003911     -0.010226
Li	      6.10958      4.17962      6.26650         0.054778     -0.012134     -0.025068
Li	      4.17822      8.23036      4.16623        -0.035894     -0.009425      0.078860
Li	      2.09758      6.21823      4.18588         0.030148      0.037448      0.064885
Li	      2.03343      4.16947      6.19446        -0.034655      0.002521      0.098748
Sc	      8.15716      4.17050      4.14487        -0.033442     -0.086723     -0.059923
Cu	      6.19141      8.28724     10.35158         0.037974      0.006044      0.091277
Cu	      2.05536      4.08517      2.08934        -0.326695      0.237748     -0.154767
Cu	      4.11879      4.17510      4.13164         0.028304      0.161061     -0.050377
Cu	      4.07970      6.28341      6.20216         0.018627      0.196113      0.165141
Cu	      4.14630      4.09902      8.26138         0.280197      0.149076     -0.072902
Cu	      6.21700      6.20190      8.27413        -0.136006      0.218077      0.021295
Cu	      4.19013     10.32254      6.22079         0.097370      0.014567      0.076996
Ni	      4.10997      2.08253      6.21350        -0.011593      0.026663     -0.096300
O	      2.01457      6.22518      6.24926         0.021257     -0.093514     -0.021536
O	      4.14465      8.35255      6.17754         0.058757      0.028500     -0.039366
O	      4.19408      6.16801      8.18261        -0.008334      0.059406      0.021658
O	      6.27856      8.19212      8.36454        -0.155629     -0.174218      0.006626
O	      6.17470      6.26574     10.34952        -0.009680     -0.064233     -0.141460
O	      8.18790      8.31898     10.24312         0.083385      0.035524     -0.083345
O	      2.01096      2.16268      2.09175        -0.037966      0.102180      0.081399
O	      4.02879      4.17107      2.02812         0.285098      0.074327     -0.107628
O	      4.17252      2.12002      4.14813        -0.091462      0.084946     -0.124055
O	      6.11206      4.07535      4.12943        -0.140975      0.073935     -0.056470
O	      6.07425      1.96076      6.13235         0.449208     -0.018799     -0.095925
O	      8.30270      4.19928      6.24022        -0.086476     -0.246133      0.214984
O	      2.18565      4.15924      4.01086         0.083047     -0.011954     -0.273961
O	      4.12729      6.15025      4.33917        -0.018028     -0.242436     -0.109497
O	      4.11546      4.10372      6.27513         0.019205      0.140337      0.264797
O	      6.26454      6.23412      6.29452        -0.463638     -0.029366      0.015235
O	      6.19279      4.20989      8.31773         0.033541     -0.030644      0.067357
O	      8.19140      6.24972      8.23586         0.124107     -0.589957      0.350786
