# total energy = -183.90617721 eV
 
CRYSTAL
PRIMVEC
-0.007017 6.169323 6.218551 
6.196444 -0.006357 6.218102 
4.123007 4.104565 0.003505 
PRIMCOORD
36 1
Li	      4.11052      6.18322     10.32203         0.011330     -0.026121     -0.027222
Li	      6.15186      2.06682      4.09320        -0.002531     -0.001669     -0.049846
Li	      8.15991      4.17660      8.28545        -0.022349      0.000415     -0.009921
Li	      4.17517      4.01737      4.26147        -0.000520     -0.012446     -0.017979
Li	      4.04983      2.12387      6.19882         0.014990      0.001396     -0.016764
Li	      6.26420      8.16125      6.26983         0.100649     -0.016239      0.038690
Li	      4.17125      6.09235      6.26338        -0.003478     -0.041497      0.034680
Li	      4.10532      4.11766      8.23561        -0.050772      0.056021     -0.025673
Li	      6.26292      6.11869      8.29246         0.022555     -0.001915      0.012467
Sc	     10.23022      6.18097      8.27999        -0.103669     -0.011980     -0.003689
Ni	     10.27898      4.10311      6.19091        -0.093582      0.121568      0.028734
Ni	      8.25450      8.22949     12.40320        -0.080372     -0.057248      0.101283
Ni	      6.20719     10.24821      8.30524        -0.104669      0.059691      0.041196
Ni	      4.14086      8.20091      8.30663         0.053456      0.038386     -0.047191
Ni	      2.09592      2.06548      4.17914        -0.080375      0.122590     -0.049123
Ni	      6.17401      4.12632      6.18609         0.122685     -0.083484      0.012362
Ni	      0.00218      4.13022      4.15700         0.042624     -0.111622     -0.027111
Ni	      2.05382      6.14559      4.16311         0.088057     -0.072524      0.025276
O	      2.07571      1.92015      2.12686        -0.104404      0.124304      0.044382
O	      4.26945      4.05744      2.02408        -0.107079      0.050900      0.107325
O	      4.04452      2.07180      3.97955         0.166154     -0.031911      0.195695
O	      6.17167      4.22783      4.18411         0.005470     -0.166156     -0.030860
O	      6.29629      2.08838      6.15438        -0.069021     -0.011887     -0.001325
O	      8.19635      3.94006      6.22886         0.020635      0.191552      0.009126
O	      1.91318      4.07184      4.20491         0.101850      0.019345     -0.003332
O	      4.15852      6.31192      4.16612        -0.026993     -0.095704     -0.001142
O	      4.28179      4.08174      6.20721        -0.182736     -0.009526     -0.010631
O	      6.23391      6.04773      6.10936         0.010267      0.190654      0.136505
O	      6.18638      4.10811      8.20831        -0.007227      0.023764      0.043066
O	      8.26348      6.11389      8.39883        -0.059583      0.007984     -0.154402
O	      2.00541      6.33061      6.19842         0.081359     -0.115952      0.012934
O	      3.98008      8.27463      6.34207         0.133838     -0.123787     -0.031441
O	      3.95416      6.25798      8.29412         0.226933     -0.106712      0.004141
O	      6.15252      8.37589      8.28771         0.130206     -0.220362     -0.014165
O	      6.25039      6.00964     10.42215        -0.103327      0.188315     -0.156302
O	      8.42927      8.14846     10.42717        -0.130369      0.121858     -0.169746
