# total energy = -262.47549793 eV
 
CRYSTAL
PRIMVEC
0.031294 6.337888 6.199187 
6.395433 -0.012057 6.242731 
4.254092 4.244641 0.001406 
PRIMCOORD
36 1
Li	      6.46911      4.22151      2.30043        -0.021061      0.010748     -0.085065
Li	      8.31142      4.23105      4.03344         0.025081      0.002148      0.078118
Li	      6.36721      2.33280      4.02448        -0.020459     -0.021035     -0.029792
Li	      4.32137      6.33599      2.13618         0.000518     -0.034564      0.015637
Li	      6.38259      6.15891      4.11248        -0.024223      0.056703      0.017414
Li	      4.47283      4.22879      4.07215        -0.022535      0.013540     -0.027666
Li	      4.31446      6.28076      6.31707        -0.005875      0.013856     -0.032575
Li	      4.22215      4.38816      8.30640        -0.021400      0.049574      0.019090
Li	      6.30043      6.38962      8.30419         0.023516      0.030523      0.049882
Ti	      0.01954      0.06062      0.04449        -0.016583      0.010687      0.086155
Ti	      2.06222      8.33613      6.20989        -0.096306     -0.004503     -0.011123
Ti	      8.59532      6.33868     10.27010         0.036321      0.002652     -0.116520
Ti	      4.30588      2.07472      6.14594        -0.016636      0.041193     -0.099811
Ti	      6.39203      4.16057     10.25827        -0.036803     -0.027417     -0.241001
Ti	      2.20015      4.22479      6.25840         0.199851     -0.102900      0.109163
Mn	      6.29850      4.31731      6.16985        -0.007806      0.033668      0.085607
V	      4.29513      8.33679      8.34574         0.033534      0.054489      0.034225
V	      2.14577      4.25529      2.12457        -0.006613      0.004709     -0.004925
O	      2.20114      2.14302      1.99326         0.001936     -0.102264     -0.081086
O	      4.24587      4.15630      1.99206         0.088802     -0.026767     -0.148684
O	      4.32180      2.06877      4.26380        -0.019169      0.027146      0.131482
O	      6.37122      4.24488      4.17796         0.036891      0.004155     -0.067640
O	      6.40920      2.08875      6.26687         0.015995     -0.125378     -0.000373
O	      8.58659      4.19175      6.24720         0.075679      0.003282     -0.085358
O	      2.06989      4.25537      4.20100        -0.030643     -0.018839      0.132537
O	      4.17286      6.43785      4.14160        -0.089468      0.105333      0.015768
O	      4.13874      4.14755      6.24649        -0.167550     -0.016520     -0.009884
O	      6.52627      6.47736      6.22565         0.034891      0.124843      0.022727
O	      6.41903      4.24906      8.36542        -0.042418     -0.006466      0.267653
O	      8.55822      6.34854      8.27260         0.020538      0.015836      0.077918
O	      2.16690      6.30588      6.17780        -0.040564      0.003052     -0.002817
O	      4.25322      8.47934      6.17138         0.011491     -0.014285     -0.022594
O	      4.30276      6.43669      8.28452        -0.022352      0.010263     -0.009666
O	      6.31295      8.49776      8.18721        -0.026930     -0.037159     -0.162089
O	      6.55573      6.21189     10.48226         0.058167     -0.031248      0.023156
O	      8.61247      8.40708     10.40608         0.072184     -0.049053      0.072136
