# total energy = -263.36773110 eV
 
CRYSTAL
PRIMVEC
0.024490 6.262853 6.261833 
6.310128 0.029042 6.257282 
4.244585 4.210371 -0.018804 
PRIMCOORD
36 1
Li	      0.02925      6.23507      6.23653        -0.021249      0.013081     -0.022469
Li	      8.46266      8.42609     12.48099        -0.026576      0.061337     -0.011194
Li	      8.41179      4.27186      8.28290        -0.024604      0.014602     -0.007985
Li	      4.17931      4.29862      4.27342        -0.000400      0.041393      0.043866
Li	      6.32748      4.24253      6.30999         0.024987      0.004170      0.037083
Li	      2.13204      6.23704      4.26016        -0.033468     -0.006964      0.081124
Li	      2.17721      4.21477      6.23476        -0.002668     -0.025433     -0.004270
Li	      4.21910      6.21469      6.24186         0.018353     -0.036051      0.014111
Li	      6.37197      6.24839      8.28566         0.005413     -0.039176     -0.015356
Ti	      2.06319      6.29511      8.17291         0.007843     -0.052764     -0.302781
Ti	      0.06509      1.99310      2.03724        -0.029974     -0.069326     -0.110258
Ti	      4.29092      8.44387      4.27868         0.053793      0.120921      0.075477
Ti	      4.25740      8.40288      8.26026         0.006854      0.025090     -0.030335
Ti	      6.36786      6.32511      4.23752         0.001197     -0.028639      0.124960
Ti	      8.44806      6.27024      6.19230        -0.015332     -0.133956      0.024691
V	      4.20506      0.05379      4.19466         0.015829     -0.015650     -0.033327
V	      6.34257      2.12005      4.23661         0.027052      0.005718     -0.004470
Cr	      4.23581      4.16961      8.29469        -0.064263      0.040797      0.058498
O	      2.13879      2.11064      2.10078        -0.045804     -0.005431     -0.007102
O	      4.22729      4.18786      2.08954         0.041547      0.061679     -0.045385
O	      4.20712      2.18427      4.13499        -0.077602      0.089000      0.024275
O	      6.33385      4.29579      4.07064        -0.048738      0.102733     -0.010926
O	      6.31643      2.11741      6.34157        -0.062453      0.023700      0.221854
O	      8.43548      4.34227      6.26553         0.009786      0.134968      0.034680
O	      1.99991      4.10833      4.15860        -0.046428     -0.035021      0.055779
O	      4.32738      6.34040      4.09387         0.006369      0.025498     -0.013561
O	      4.23540      4.07408      6.31266        -0.011722      0.007106      0.019886
O	      6.41051      6.28524      6.18238         0.109261      0.019916     -0.110138
O	      6.23184      4.10887      8.46304         0.048774      0.038770     -0.040623
O	      8.54821      6.37082      8.24639        -0.017611     -0.042963     -0.022069
O	      2.12864      6.28687      6.35124        -0.001154     -0.040642      0.274516
O	      4.23765      8.38233      6.23759        -0.010626     -0.016033     -0.071821
O	      4.17746      6.23769      8.32675         0.017165     -0.006384     -0.095424
O	      6.37377      8.42147      8.35706        -0.000988     -0.013529     -0.116183
O	      6.34904      6.22692     10.44223         0.051205     -0.189453     -0.014562
O	      8.50764      8.41496     10.35238         0.096230     -0.073062     -0.000561
