# total energy = -260.96519851 eV
 
CRYSTAL
PRIMVEC
-0.027358 6.365972 6.298517 
6.317560 -0.014499 6.285538 
4.206788 4.230423 -0.004747 
PRIMCOORD
36 1
Li	     10.48443      4.23442      6.33845         0.030090      0.009858      0.083914
Li	      6.30989     10.55443      8.42991         0.068350     -0.028737      0.057177
Li	      4.22730      2.11014      2.11218         0.021962     -0.052428      0.064578
Li	      4.19472      6.32538     10.44938        -0.033673      0.016771      0.017777
Li	      6.31782      8.45983     10.44250         0.016555     -0.002052      0.074631
Li	      6.31294      2.12360      8.34636         0.001271      0.054603     -0.071977
Li	      8.41477      4.21466      8.34633        -0.039410     -0.020546     -0.067013
Li	      6.23446      4.27442     10.42325        -0.043997      0.013073     -0.027754
Li	      8.39664      8.49779      8.46096         0.018919      0.053880      0.020485
Ti	      2.09786      2.16114      0.06681        -0.232380      0.069715     -0.030140
Ti	      4.22148      4.20359      3.99980         0.112711     -0.078236     -0.102457
Ti	      8.41769      6.36489     10.41337         0.101725      0.125798      0.167967
Ti	      6.20406      8.50664      6.36587        -0.022553      0.025551     -0.017142
Ti	      2.08361      2.13423      4.07561         0.073718     -0.061234     -0.037770
Ti	      6.22262      6.26944      8.47349        -0.372079     -0.353345      0.070547
V	      6.32143      4.21144      6.28809        -0.026380     -0.072209     -0.021179
V	      4.14145      6.39870      6.31829         0.076674     -0.108305     -0.005283
Fe	      8.52827      6.26254      6.35736         0.067272     -0.084557     -0.207596
O	      2.11030      2.11979      2.10533         0.026181      0.018235     -0.060880
O	      4.19211      4.22883      2.20823        -0.013989     -0.037540      0.230997
O	      4.11564      2.19352      4.26344        -0.247949      0.232310     -0.458659
O	      6.24229      4.29421      4.15939        -0.197211      0.131050     -0.100341
O	      6.41333      2.09200      6.31543         0.588369      0.088120      0.044707
O	      8.44728      4.12534      6.26936        -0.006189     -0.219146      0.014416
O	      2.12324      4.24616      4.22318         0.062649      0.056125     -0.027483
O	      4.19399      6.32709      4.16252         0.013682     -0.130796     -0.016001
O	      4.11288      4.25352      6.20656        -0.119280     -0.087188     -0.013007
O	      6.28045      6.38802      6.28160        -0.056420      0.106646      0.055778
O	      6.30307      4.35215      8.39499         0.002328      0.470414      0.017047
O	      8.35486      6.36588      8.43992        -0.263984      0.053727      0.561815
O	      2.03466      6.34781      6.27454        -0.127986      0.008937     -0.041693
O	      4.20339      8.50852      6.28843        -0.044723      0.085314      0.079595
O	      4.29859      6.35368      8.41782         0.386570     -0.021126      0.051913
O	      6.31046      8.38158      8.26985         0.011312     -0.065615     -0.046174
O	      6.38959      6.35525     10.37723         0.165496     -0.026235     -0.342822
O	      8.42673      8.31969     10.63040         0.002367     -0.170831      0.082028
