# total energy = -255.16926068 eV
 
CRYSTAL
PRIMVEC
0.022689 6.311213 6.247048 
6.309516 0.008052 6.261840 
4.196453 4.207338 0.015187 
PRIMCOORD
36 1
Li	      8.42480      2.25864      6.19158         0.049848      0.011085     -0.014703
Li	      8.39886      4.17673      4.37584         0.086888      0.004657      0.026808
Li	      4.16680      4.17649      4.26191        -0.039629     -0.027723      0.040018
Li	      8.32832      6.17916      6.29594         0.011962     -0.010797     -0.007593
Li	      6.49126      4.24450      6.24309        -0.014732     -0.020533     -0.006143
Li	      6.32674      4.36153     10.43197         0.001573      0.151143      0.086951
Li	      2.06125      6.23837      4.18140        -0.057517     -0.053345      0.080942
Li	      2.13903      4.20137      6.16069        -0.035273      0.051914     -0.069513
Li	      6.40151      6.24216      8.33427        -0.016067      0.038447      0.047521
Ti	      2.16402      6.26022      8.29594        -0.156293      0.070062     -0.289009
Ti	      4.16531      2.09936      2.12405        -0.037022      0.072079     -0.181794
Ti	      6.30493      2.01108      4.32472         0.113009     -0.618055      0.300066
Ti	      0.05548      2.11175      2.10222        -0.091376      0.059646     -0.126607
Ti	      4.30601      6.32502      6.12761        -0.010257      0.063367     -0.169149
Ti	      2.10174      2.21123      4.15126        -0.020929      0.485524      0.056514
Ti	      4.23681      4.18622      8.32653         0.166175     -0.255648     -0.008025
Co	     10.41560      4.18677      6.25181         0.243985      0.095829     -0.079225
Ni	      8.26207      4.35895      8.30381        -0.068002      0.076463      0.027079
O	      2.13031      2.00701      2.06112         0.091647     -0.183996      0.018745
O	      4.27827      4.17596      2.11624         0.031001     -0.072739     -0.003968
O	      4.24076      2.12832      4.14399         0.053579     -0.052769     -0.041805
O	      6.29668      4.21501      4.05674         0.023484      0.022190      0.011253
O	      6.33425      2.12983      6.26125        -0.043069      0.268598     -0.061871
O	      8.45235      4.22323      6.28665         0.323000      0.002823     -0.012960
O	      2.08257      4.07663      4.14291         0.046256     -0.459804      0.001519
O	      4.20724      6.27414      4.16315         0.019796     -0.064718      0.031479
O	      4.17559      4.37771      6.37255         0.034781      0.100556      0.119945
O	      6.26028      6.29513      6.18764        -0.116841     -0.024976     -0.028680
O	      6.19041      4.10347      8.40849        -0.209202     -0.150699     -0.062950
O	      8.52008      6.46645      8.33523         0.048951      0.279919      0.013380
O	      2.17422      6.29154      6.34441        -0.140523     -0.024225      0.207617
O	      4.23481      8.30819      6.34978        -0.016159     -0.289565      0.064890
O	      4.24746      6.33434      8.25859        -0.051508     -0.034740      0.024150
O	      6.30902      8.40503      8.44464         0.027702      0.075888     -0.015697
O	      6.33551      6.43217     10.42531        -0.110605      0.410619      0.126913
O	      8.26493      8.47974     10.33495        -0.138633      0.003525     -0.106098
