# total energy = -257.93747316 eV
 
CRYSTAL
PRIMVEC
0.012365 6.282077 6.330307 
6.163197 0.016186 6.326272 
4.113549 4.189907 0.006441 
PRIMCOORD
36 1
Li	      2.01411      2.05170      0.16059         0.003072     -0.017748      0.122288
Li	      6.07551      4.29809      2.15089         0.075242     -0.021598      0.038856
Li	      6.12508      2.16895      4.24423        -0.043779     -0.011077     -0.028279
Li	      2.16051      4.08207      2.16328        -0.009539     -0.029219      0.033221
Li	      2.08605      2.13867      4.10455         0.008363     -0.014107     -0.027656
Li	      4.06076      4.14042      4.15391        -0.027347     -0.065471     -0.059617
Li	      4.10554      2.16013      6.27357        -0.051696      0.043036     -0.013647
Li	      2.11715      6.22218      4.23462         0.032146     -0.033918     -0.046481
Li	      2.12350      4.19157      6.26745         0.016541     -0.035595     -0.019228
Ti	      6.17218      6.29516     12.60301         0.022750     -0.026248     -0.213109
Ti	      4.08412      0.11338      4.27266         0.042751      0.300140     -0.091544
Ti	      6.25851      4.12352      6.22328        -0.012899     -0.038436     -0.012483
Ti	      0.14677      4.18568      4.27398         0.251066      0.073847      0.034717
Ti	      4.01536      6.36791      6.22865        -0.008012      0.067297      0.025448
Ti	      8.12145      8.33443      8.43812        -0.162365      0.096132      0.127155
Ti	      6.17753      6.24926      8.53874         0.043481      0.291613      0.092960
Co	      4.02079      2.17925      2.18747         0.345247     -0.028484      0.143551
Co	      4.20834      6.19343      2.16462         0.000781     -0.166673     -0.068783
O	      2.06146      2.09733      2.12109         0.128490     -0.037612     -0.029560
O	      4.12257      4.19202      1.94649        -0.040090      0.282607      0.147919
O	      4.11299      1.98308      4.23683        -0.008714     -0.006455      0.071855
O	      6.18252      4.15956      4.31518        -0.142076      0.056115     -0.054429
O	      6.17544      2.13538      6.31270        -0.019817      0.002384     -0.116600
O	      8.23379      4.18998      6.31480         0.034731      0.002023      0.093190
O	      1.97391      4.19016      4.23180        -0.072043      0.023697     -0.009010
O	      4.09391      6.33632      4.29308         0.072441     -0.079378      0.132852
O	      4.17050      4.28861      6.44263        -0.013468     -0.040568     -0.104926
O	      6.07652      6.15758      6.45643         0.035043      0.037539     -0.045174
O	      6.11767      4.21652      8.43076        -0.000133     -0.264206     -0.061160
O	      8.18353      6.39757      8.43476         0.149817     -0.112603      0.011470
O	      2.09414      6.29818      6.28776        -0.027137     -0.009937      0.051459
O	      4.11086      8.38393      6.31899        -0.036525     -0.001256      0.008380
O	      4.11446      6.22853      8.42031        -0.153795     -0.192442     -0.093924
O	      6.19919      8.27100      8.42727        -0.324074      0.072334      0.054442
O	      6.23967      6.34459     10.52812        -0.015657     -0.020156     -0.058898
O	      8.34617      8.53953     10.40892        -0.092792     -0.095581     -0.035257
