# total energy = -259.02199413 eV
 
CRYSTAL
PRIMVEC
-0.020832 6.364792 6.397065 
6.357831 0.022290 6.353811 
4.246940 4.222814 0.006599 
PRIMCOORD
36 1
Li	      4.21640      4.25104      4.53426         0.012892     -0.015835     -0.042220
Li	      4.20761      2.36862      6.44084        -0.026798     -0.015688     -0.006538
Li	      6.06410      4.30709      6.42006         0.046723     -0.006341     -0.003424
Li	      6.36832      4.29225     10.57378         0.010853     -0.013470     -0.036336
Li	      2.10302      6.32714      4.25033         0.040573     -0.045281     -0.012667
Li	      2.33637      4.27363      6.42495        -0.010308     -0.017452      0.014635
Li	      4.23152      6.12109      6.39354        -0.001048      0.052999      0.009472
Li	      4.23396      4.23516      8.28788         0.044744     -0.001804      0.013833
Li	      6.39105      6.34282      8.40879        -0.017672     -0.052443     -0.065488
Ti	      8.46217      2.18883      6.31721         0.084290      0.083859     -0.030886
Ti	      2.16764      6.38803      8.49898        -0.006167      0.098842      0.177029
Ti	      4.22057      2.09955      2.13771        -0.053056      0.085588      0.081874
Ti	      8.46944     10.49834     10.67442        -0.252445     -0.026753     -0.041116
Ti	     10.52226      6.44787      8.56140        -0.102684      0.142862      0.139813
Ti	      2.11320      4.11954      2.07321        -0.062308      0.077594      0.044954
Ti	      6.31473      6.42630      4.52121         0.039852      0.060639      0.365765
Cr	      6.36626      6.40760     12.68547         0.065936     -0.106998      0.229878
Cu	      6.46093      8.42334     10.47984         0.214990     -0.088977     -0.194540
O	      2.09031      2.06221      2.14666         0.010190     -0.201805      0.017461
O	      4.26700      4.23689      2.02943        -0.108027      0.008250     -0.138822
O	      4.05439      2.06736      4.12729        -0.210116     -0.018646     -0.095681
O	      6.42761      4.39787      4.18674         0.019116      0.161470      0.054075
O	      6.48227      2.06530      6.53407         0.019083     -0.016396      0.078861
O	      8.55351      4.28173      6.32965         0.107696     -0.027745      0.008676
O	      2.13021      4.10293      4.09287        -0.039390     -0.205800      0.004307
O	      4.38011      6.32362      4.13087         0.106609      0.063459     -0.097413
O	      4.21620      4.24689      6.38996        -0.039741     -0.001279      0.099290
O	      6.32405      6.39810      6.30570        -0.031188      0.026535     -0.462587
O	      6.44608      4.17148      8.45778         0.044865     -0.177939      0.012945
O	      8.62347      6.25061      8.53170         0.162911      0.026508     -0.003695
O	      2.01822      6.43406      6.43636        -0.086896     -0.009350     -0.033964
O	      4.07910      8.56366      6.51173        -0.092261      0.079885      0.007120
O	      4.21005      6.41122      8.59492         0.099304      0.001605     -0.057858
O	      6.19320      8.62641      8.45356         0.007533     -0.003582     -0.008036
O	      6.20464      6.35131     10.72933         0.024133      0.044680     -0.060486
O	      8.52752      8.52111     10.70308        -0.022191      0.038812      0.031769
