# total energy = -99.80450092 eV
 
CRYSTAL
PRIMVEC
-0.000003 2.213105 2.213511 
3.739881 0.000066 -0.000052 
-0.000411 10.061866 -0.000002 
PRIMCOORD
16 1
Li	      0.00000      0.57416     -0.57385        -0.000022      0.008713     -0.010545
Li	      1.86989      2.75759     -0.55046        -0.000009     -0.012993      0.014712
Li	     -0.00008      4.44020     -0.02185         0.000019     -0.021629      0.030991
Li	      1.86974      6.89696     -4.68051         0.000033      0.028421     -0.028802
Ti	      3.73955      7.44106     -7.42881         0.000231     -0.150559      0.149046
Ti	      1.86959     10.10704     -7.87851         0.000036      0.216506     -0.219148
Ni	      1.86982      4.57583     -2.36857         0.000087      0.024406     -0.016943
Ni	     -0.00016      6.89446     -2.47051         0.000037      0.121050     -0.120086
O	      3.73958      7.78645     -5.56072         0.000077      0.168485     -0.172137
O	      1.86963      7.86765     -7.85257        -0.000221     -0.040329      0.035326
O	     -0.00012      4.97347     -2.76358         0.000093     -0.081739      0.087891
O	      1.86978      5.12580     -5.12341        -0.000224      0.055797     -0.054378
O	     -0.00004      2.35132     -0.13877         0.000016     -0.011296      0.011239
O	      1.86985      4.83710     -0.41673         0.000033     -0.115023      0.118986
O	     -0.00033      9.66036     -7.43085        -0.000114      0.049563     -0.056324
O	      1.86958      9.73326     -9.71813        -0.000072     -0.239374      0.230170
