# total energy = -263.98632181 eV
 
CRYSTAL
PRIMVEC
-0.003221 6.281484 6.186127 
6.335325 -0.019575 6.201719 
4.218111 4.192975 -0.007539 
PRIMCOORD
36 1
Li	     10.50408      4.16967      6.18733        -0.006661     -0.038030      0.017483
Li	      2.07249      6.24388      8.17751        -0.034477      0.014119     -0.024679
Li	      8.36809      4.25795      8.18886         0.041841     -0.020763     -0.007971
Li	      8.39624      6.19542      6.34357        -0.083399     -0.029108     -0.016443
Li	      6.36925      4.19903      6.27991        -0.038566      0.014488     -0.002499
Li	      6.36089      4.27080     10.25586         0.033627      0.045704      0.015147
Li	      8.33897      6.25960     10.27560        -0.032429     -0.011529      0.025405
Li	      8.48111      8.29991      8.27618        -0.001868     -0.003136      0.008538
Li	      6.47198      6.15672      8.27372         0.030366     -0.021541     -0.006745
Ti	      4.20301      2.10245      2.20368         0.110024      0.074507      0.047846
Ti	      4.24111      0.06202      4.11901         0.032079      0.117056      0.011505
Ti	      6.23802      2.04933      4.08635        -0.117533     -0.044192     -0.252360
Ti	      6.20925      2.18221      8.24437        -0.251842      0.200786     -0.063880
Ti	      2.23328      2.08780      4.06364         0.116468      0.127421     -0.044743
Ti	      4.25163      6.27773      6.29255        -0.072680     -0.150621      0.106438
Ti	      4.21707      4.08466      4.07253        -0.116226     -0.182348     -0.046384
Cr	      8.44518      8.37597     12.34647        -0.093089      0.144460      0.077393
Fe	      6.29800      8.43630      6.22605         0.081952      0.064703     -0.054070
O	      2.10873      2.07144      2.02451        -0.019186      0.009690      0.039870
O	      4.23583      4.19020      2.08767        -0.000844      0.000305      0.082017
O	      4.23984      2.08475      4.36498         0.040238      0.021287     -0.039673
O	      6.32047      4.18253      4.10589         0.014693     -0.010409     -0.014332
O	      6.41239      2.05737      6.23007         0.025325      0.001177     -0.014122
O	      8.42574      4.10179      6.07756        -0.007638     -0.052406      0.006426
O	      2.16908      4.12868      4.13716         0.149892     -0.146336      0.044135
O	      4.32331      6.20408      4.06389         0.038870     -0.024938      0.018099
O	      4.23093      4.32338      6.12018         0.057731      0.150295     -0.027315
O	      6.21635      6.27994      6.10920        -0.017051     -0.096201      0.064196
O	      6.34227      4.01567      8.27514         0.011425     -0.251013      0.004578
O	      8.58899      6.26020      8.24943         0.232928      0.001408      0.030936
O	      2.27518      6.37850      6.14618         0.069594     -0.009077     -0.033289
O	      4.13754      8.32494      6.20240        -0.012858     -0.014716     -0.040179
O	      4.23169      6.27630      8.23565        -0.007982      0.022775     -0.143416
O	      6.27350      8.37470      8.26818        -0.140649     -0.017530      0.342029
O	      6.25824      6.33276     10.29753        -0.025046      0.085222     -0.013023
O	      8.31428      8.45250     10.35954        -0.007029      0.028493     -0.096921
