# total energy = -259.24258378 eV
 
CRYSTAL
PRIMVEC
-0.021524 6.196434 6.242737 
6.331428 -0.039177 6.260108 
4.182678 4.104205 0.012191 
PRIMCOORD
36 1
Li	      4.25698     10.17358      6.26788         0.013926     -0.021474      0.029194
Li	      2.16555      8.17802      6.23627         0.031923      0.033293      0.034721
Li	      4.20852      2.10075      2.08866        -0.007532     -0.011178      0.020947
Li	      6.29527      8.23043     10.38225        -0.001079     -0.011063      0.021527
Li	      2.15715      2.07650      4.12466         0.049661     -0.004992      0.005225
Li	      4.17170      4.05250      4.14028        -0.046665     -0.011920      0.000055
Li	      4.18040      8.24490      4.29734         0.036396     -0.005390      0.020003
Li	      2.04586      4.18839      6.21251         0.012185     -0.056008     -0.030469
Li	      8.26705      8.24358      8.40443        -0.048651     -0.034200     -0.015500
Ti	      4.28612      6.10313     10.39088        -0.004956     -0.018439      0.031811
Ti	      0.03258      2.12141      2.10260         0.042934      0.048883     -0.061911
Ti	      2.11355      4.11429      2.13013         0.040890      0.035926     -0.013473
Ti	      6.25507      4.04989      6.20227        -0.047916      0.011479     -0.021418
Ti	      4.23247      6.26101      6.28209         0.089120      0.152607     -0.002260
Ti	      8.34922      6.14509      6.23363        -0.056869     -0.020331      0.022093
Ti	      6.25199      6.25028      8.31634         0.021409      0.104856     -0.067779
Cr	      8.38078      6.21022     10.48642        -0.008324      0.041902     -0.028755
Ni	      6.21541      4.01116      2.10700         0.073884      0.042187     -0.008828
O	      1.99546      2.05202      2.10813        -0.051536      0.034034     -0.018144
O	      4.14484      4.15467      2.08377        -0.054395      0.009106      0.025494
O	      4.22834      1.92489      4.25639        -0.003372      0.003897     -0.031431
O	      6.41369      4.06730      4.22152        -0.001738     -0.010395      0.029786
O	      6.21669      2.01671      6.35150        -0.039783     -0.048557     -0.060264
O	      8.36171      4.04868      6.25484        -0.013319     -0.071376     -0.036293
O	      2.06743      4.23098      4.03805         0.003120     -0.046410     -0.034765
O	      4.08033      6.19214      4.17613         0.009017      0.000485      0.018964
O	      4.26349      4.10109      6.25008         0.009374      0.014946     -0.041692
O	      6.29095      6.17883      6.17799         0.007511      0.012319     -0.047984
O	      6.35819      4.14716      8.27786        -0.026818      0.014020      0.100511
O	      8.41764      6.20588      8.39459         0.025464      0.104728      0.053954
O	      2.19161      6.15988      6.21093        -0.065856      0.018314      0.042730
O	      4.20122      8.10138      6.28426         0.003311     -0.164237      0.011886
O	      4.17126      6.14352      8.34439        -0.008517     -0.015495      0.013538
O	      6.26598      8.14478      8.32984        -0.014678     -0.161572     -0.002615
O	      6.32871      6.15586     10.39311         0.004531     -0.006381      0.051412
O	      8.41023      8.25231     10.44025         0.027351      0.036437     -0.010270
