# total energy = -265.19189893 eV
 
CRYSTAL
PRIMVEC
-0.004850 6.312428 6.238106 
6.217429 0.001445 6.231718 
4.150141 4.209262 -0.004101 
PRIMCOORD
36 1
Li	      0.00239      6.27116      6.19588         0.025669      0.003323     -0.036809
Li	      4.17382      8.42337      8.28776         0.034897      0.007744      0.049542
Li	      4.13644      4.26697      4.23630         0.022680      0.054715      0.026568
Li	      4.16456      2.16486      6.23553         0.003467      0.020698     -0.002584
Li	      6.09579      4.21725      6.24969        -0.104859      0.004401     -0.032981
Li	      4.11804      8.40362      4.17061        -0.004470     -0.007404     -0.028661
Li	      2.13032      6.31006      4.17506         0.048573     -0.011206     -0.014837
Li	      4.12733      6.26156      6.15678        -0.025693     -0.063035     -0.099570
Li	      4.21569      4.20516      8.26986        -0.004054      0.005241     -0.015604
Ti	      2.19492      8.38799      6.28884        -0.025791     -0.035962      0.119796
Ti	      2.02774      6.31523      8.26364        -0.022837      0.061182      0.030946
Ti	      6.18949      2.09477      4.19164        -0.139937      0.058638      0.063302
Ti	      2.09570      4.19147      2.07008         0.109956     -0.139416     -0.037759
Ti	      2.04408      2.16107      4.18511        -0.039343      0.002808      0.000248
Ti	      2.11332      4.20648      6.23478         0.176716      0.028494      0.033251
Ti	      6.21621      6.31730      8.24357        -0.020017      0.128103     -0.068728
Cr	      8.29926      4.20374      4.19491        -0.166563      0.164673      0.103616
Cr	      6.15592      2.14001      8.26897         0.023373      0.019825     -0.031871
O	      2.22436      2.07763      2.11562         0.149215      0.021454     -0.005202
O	      4.18833      4.18994      2.07835         0.007435      0.090816     -0.038400
O	      4.13792      2.03450      4.19298         0.061175      0.041903      0.023683
O	      6.25788      4.21041      4.16489        -0.078114     -0.037806     -0.022626
O	      6.28739      2.10725      6.19219        -0.028453      0.004398     -0.131141
O	      8.32413      4.12599      6.22812         0.017730      0.002023      0.098061
O	      2.09034      4.19544      4.14497        -0.018403      0.022776      0.009556
O	      4.27385      6.32398      4.07217         0.080400      0.034496      0.054274
O	      3.96678      4.19999      6.25026        -0.164548      0.010398      0.032807
O	      6.17099      6.32188      6.20633        -0.047214     -0.078177     -0.010748
O	      6.27020      4.28581      8.28836        -0.007097     -0.051587     -0.016355
O	      8.14016      6.26651      8.31249        -0.148811     -0.039469     -0.000368
O	      2.06808      6.31435      6.22374         0.009142     -0.018361      0.009583
O	      4.13655      8.39934      6.23220         0.036420     -0.020374      0.007225
O	      4.11829      6.30140      8.40771         0.003838     -0.040725     -0.085725
O	      6.19617      8.43019      8.34519        -0.012379     -0.017999      0.042666
O	      6.13200      6.37901     10.32596         0.194088     -0.042756     -0.011207
O	      8.22946      8.49712     10.46738         0.053810     -0.183833     -0.013947
