# total energy = -252.65590330 eV
 
CRYSTAL
PRIMVEC
0.010837 6.235408 6.301068 
6.253894 0.018532 6.293145 
4.179464 4.161901 0.002320 
PRIMCOORD
36 1
Li	     10.40417      4.19664      6.30770        -0.143463     -0.002727      0.093502
Li	      4.27718      8.29429      8.34277        -0.034802      0.082871     -0.005821
Li	      4.26526      6.24457     10.47648        -0.004007     -0.050516      0.074772
Li	     10.22780      6.26621      8.36902        -0.063066     -0.044688     -0.009976
Li	      8.35855      6.25700      6.49544         0.015159     -0.078229      0.068760
Li	      8.33207      6.28020     10.32054        -0.007622     -0.058698     -0.165587
Li	      6.24909      8.31513      6.40199         0.011349      0.034583     -0.048016
Li	      8.31584      8.14576      8.37290         0.069420     -0.054523     -0.027310
Li	      6.40657      6.33129      8.36561         0.108693     -0.086616      0.018406
Ti	      2.12117      8.21573      6.35198        -0.056742      0.388525      0.226280
Ti	      2.20979      6.25784      8.41923         0.006907     -0.165969     -0.153996
Ti	      6.20530      8.26373     10.42605        -0.128758     -0.178564     -0.147387
Ti	      6.26914      4.25068      6.38832         0.668869      0.054784      0.976424
Ti	      6.24063      4.24738     10.44868         0.635138      0.163893     -0.727700
Ti	      2.10971      2.02849      4.15636        -0.059375      0.424061      0.067709
Ti	      4.09872      4.17274      4.19798        -0.526492      0.112950     -0.734218
Cu	      4.20771      6.23291      6.50672         0.014327     -0.078849      0.241168
Ni	      8.38376      4.30467      8.35472        -0.038463     -0.024864      0.053859
O	      2.14346      2.13169      2.05431         0.005230     -0.598092     -0.111541
O	      4.25408      4.16504      2.25272         0.965955     -0.075704      0.418946
O	      4.18344      2.07957      4.17681         0.080765      0.104584      0.006695
O	      6.24300      4.10702      4.24155        -0.014809      0.106011     -0.040977
O	      6.35515      2.13545      6.22409         0.193379      0.035727     -0.259360
O	      8.22773      4.08352      6.29625        -0.282904     -0.400255     -0.811998
O	      2.05666      4.15020      4.20960         0.041462     -0.332077      0.993427
O	      4.25016      6.29257      4.10681         0.142631      0.000398      0.001138
O	      4.30064      4.09472      6.14860         0.083976      0.074533     -0.141504
O	      6.33802      6.19943      6.18833        -0.126860     -0.157451     -0.258586
O	      6.25285      4.21884      8.36221        -1.020369     -0.076753     -0.100693
O	      8.35493      6.23902      8.38662        -0.062557      0.679798     -0.019033
O	      1.97246      6.28243      6.40005         0.056950      0.204077      0.092028
O	      4.08493      8.40226      6.13483        -0.226477     -0.150812     -0.222000
O	      4.04788      6.25717      8.51542        -0.308818      0.032687      0.038534
O	      6.26967      8.35680      8.47356         0.006831      0.159927      0.327862
O	      6.23596      6.25968     10.46674         0.001627      0.026813      0.065200
O	      8.36119      8.31329     10.58614        -0.003081     -0.070833      0.220995
