# total energy = -255.59320632 eV
 
CRYSTAL
PRIMVEC
0.061008 6.292488 6.328584 
6.308489 0.043705 6.345584 
4.211140 4.211877 0.023613 
PRIMCOORD
36 1
Li	      6.30382      0.07953      6.31518         0.024364      0.012959      0.054265
Li	      4.38163      8.42654      8.44473         0.010311     -0.005732     -0.008302
Li	      6.26047      2.15228      4.27357         0.057098      0.013904     -0.011574
Li	     10.38759      6.38872      8.46388        -0.012676     -0.021378     -0.011290
Li	      4.23532      4.18170      4.28379         0.000853     -0.005317     -0.041460
Li	      6.30687      4.16771      6.30796         0.033570      0.034983     -0.008411
Li	      8.44801      6.33840     10.56565        -0.018791     -0.018272      0.015391
Li	      2.14588      4.23374      6.29791        -0.010542      0.005842     -0.012931
Li	      8.45602      8.37714      8.47331         0.006979      0.068279      0.001621
Ti	      8.30222      2.15504      6.40989        -0.301872      0.057372      0.053814
Ti	      6.24748      4.20846      2.21465        -0.081267      0.004353      0.077890
Ti	      2.24558      4.15277      2.12886         0.074622     -0.086198     -0.031279
Ti	     10.49598      8.51595     10.61407        -0.062021      0.031830     -0.040242
Ti	      4.23051      6.15900      6.31995         0.012512     -0.487046      0.028734
Ti	      2.25313      2.06209      4.15451         0.172912     -0.004447     -0.017940
Ti	      6.40425      6.44429      8.42482         0.106498      0.089115      0.057767
Cu	      8.43731      4.31840      4.38892         0.054616      0.048446      0.034377
Cu	      4.41933      2.24857      6.29208         0.056361      0.075128      0.012209
O	      2.11156      2.08818      2.12154         0.016570     -0.010560     -0.011618
O	      4.21019      4.22270      2.13144        -0.026997     -0.038979      0.013904
O	      4.09322      2.18558      4.18103        -0.113334      0.006404      0.008144
O	      6.24955      4.22905      4.17592         0.004311      0.018724     -0.065843
O	      6.47102      2.11297      6.34461         0.198280     -0.002079      0.016649
O	      8.41448      4.14115      6.51268        -0.026915     -0.054156      0.052396
O	      2.01885      4.16054      4.19114         0.008321      0.037000      0.035839
O	      4.33425      6.41632      4.30558        -0.046004      0.010334      0.035527
O	      4.22251      4.33852      6.31670        -0.020111      0.377915     -0.026599
O	      6.20645      6.34291      6.37410        -0.181879     -0.007800      0.027435
O	      6.40847      4.31481      8.57409        -0.000928     -0.024792      0.019156
O	      8.35001      6.24853      8.48461        -0.018343      0.018307     -0.018725
O	      2.23749      6.32242      6.39458         0.041999     -0.001421     -0.019885
O	      4.17122      8.37812      6.23165         0.005881     -0.016351     -0.031308
O	      4.24440      6.36503      8.28585         0.041868     -0.007414     -0.128578
O	      6.37617      8.39064      8.47849         0.005523     -0.051408      0.004404
O	      6.39497      6.25823     10.42799        -0.046651     -0.046111     -0.024462
O	      8.57576      8.34760     10.70014         0.034881     -0.021436     -0.039070
