# total energy = -260.41867134 eV
 
CRYSTAL
PRIMVEC
0.021788 6.227366 6.347864 
6.257945 0.013102 6.356584 
4.156825 4.142310 0.023616 
PRIMCOORD
36 1
Li	      6.23293      0.08815      6.35006        -0.010441     -0.006594     -0.041259
Li	      8.28869      2.09362      6.38751         0.013627      0.006459     -0.003257
Li	      6.14699      4.16057      2.19387        -0.007378      0.008865      0.003112
Li	      6.21303      2.08333      4.27810         0.001520     -0.024400     -0.016444
Li	      2.10430      4.16227      2.13865        -0.031668      0.011386      0.017533
Li	      2.13603      2.12662      4.19785        -0.008568      0.032984      0.002219
Li	      4.17747      4.04769      4.20320        -0.000282     -0.022938      0.024658
Li	      4.23025      2.02485      6.33473         0.006166     -0.017352     -0.003140
Li	      6.42169      6.20409      8.53497         0.021423     -0.034632      0.016487
Ti	      4.11536      2.07840      2.10978         0.011808     -0.071397     -0.024783
Ti	      4.19613      0.04021      4.24001         0.006023      0.150262      0.142969
Ti	      4.22929      6.11591      2.17136         0.036451     -0.149789     -0.155265
Ti	      6.24364      4.17451      6.32343        -0.010696     -0.010254     -0.002705
Ti	      2.14606      4.13451      6.35328         0.098986      0.043956     -0.049311
Ti	      4.15595      6.19964      6.39877        -0.001641     -0.041062      0.187141
Ti	      4.12356      4.22195      8.37730         0.013643     -0.013191     -0.030219
Fe	      8.31785      6.24640     10.60858        -0.111360      0.048016     -0.006304
Co	      4.16832      8.30249      4.27587         0.109114      0.053229     -0.042747
O	      2.08929      2.07896      2.13082        -0.005653     -0.018126     -0.019285
O	      4.15069      4.16721      2.14293         0.009438      0.127966     -0.000681
O	      4.17686      2.01821      4.13045         0.003843     -0.130637     -0.089791
O	      6.34201      4.13181      4.36658         0.085454     -0.010252      0.112687
O	      6.28005      2.17579      6.54140         0.008470      0.100264      0.150364
O	      8.24577      4.18063      6.22433        -0.122749      0.019059     -0.140476
O	      2.09029      4.18398      4.36546        -0.086223     -0.063944      0.170746
O	      4.24161      6.20199      4.24514        -0.031656      0.107877     -0.064121
O	      4.19517      4.07424      6.26735         0.000283      0.023074     -0.063580
O	      6.22363      6.22431      6.42115        -0.021432      0.007285      0.006362
O	      6.22499      4.11790      8.42662        -0.060455     -0.081321     -0.086445
O	      8.45459      6.31960      8.47287         0.101007      0.052120     -0.066015
O	      2.15707      6.17588      6.39460         0.124579     -0.091996      0.042754
O	      4.20156      8.31548      6.39945         0.033420     -0.062950      0.077009
O	      4.15631      6.25547      8.47536        -0.034546      0.005831      0.069234
O	      6.22050      8.29948      8.43857        -0.017630     -0.006450      0.009456
O	      6.15184      6.23944     10.58504        -0.244955     -0.075130     -0.039155
O	      8.30768      8.32890     10.52072         0.122080      0.133783     -0.087753
