# total energy = -257.65380943 eV
 
CRYSTAL
PRIMVEC
0.004681 6.294254 6.325222 
6.285360 -0.017009 6.347314 
4.169114 4.189296 0.010256 
PRIMCOORD
36 1
Li	      2.03123      0.12766      2.18344         0.001084     -0.032500      0.016853
Li	      3.97239      2.18844      2.17388         0.007302     -0.034962     -0.026422
Li	      6.20151      2.16161      4.23549        -0.004860      0.030368     -0.049816
Li	      2.16876      4.05963      2.23771        -0.026514      0.040818      0.066251
Li	      2.15714      2.11823      4.05338        -0.024210     -0.011883      0.046534
Li	      4.19812      4.07957      4.05650         0.024531     -0.047374     -0.071126
Li	      4.18689      2.12162      6.28545        -0.003127      0.013699     -0.033312
Li	      4.22327      8.33240      4.23350         0.024298     -0.034405      0.002345
Li	      2.11797      6.24731      4.23104         0.023391     -0.034425     -0.004449
Ti	     10.41363      4.21798      6.38977        -0.091602      0.037070      0.061005
Ti	      4.19895      0.13031      4.26104        -0.009984      0.246298     -0.017786
Ti	      6.34886      4.13874      6.23440         0.037841      0.057987     -0.222049
Ti	      2.10906      4.17622      6.16821         0.040675     -0.026517     -0.352355
Ti	      4.17299      6.30624      6.21219        -0.014356     -0.039224     -0.395208
Ti	      6.25972      6.28195      8.61384         0.125334      0.094808      0.141343
Ti	      8.33669      8.31129      8.56980        -0.103859     -0.107868      0.336564
Fe	      4.25114      6.24192      2.16907        -0.318994      0.046155      0.190242
Cu	      2.04950      2.08659      0.10268        -0.120087      0.060511      0.028830
O	      2.01840      2.10379      2.16970         0.201773      0.016819     -0.058313
O	      4.15745      4.15408      1.94954        -0.019721     -0.093313     -0.224174
O	      4.20389      1.95841      4.18581         0.003635     -0.203322     -0.000508
O	      6.29594      4.16796      4.32325         0.017532      0.022757      0.190523
O	      6.19799      2.09732      6.28965         0.003313     -0.043275     -0.056915
O	      8.36391      4.26954      6.33608         0.054270      0.041928     -0.002032
O	      2.15430      4.15094      4.35489        -0.005225     -0.014168      0.386176
O	      4.15786      6.29572      4.38653         0.024573     -0.012227      0.430421
O	      4.21202      4.22388      6.42745         0.022162      0.012364      0.034550
O	      6.26238      6.25165      6.44608        -0.003635     -0.018862      0.000247
O	      6.21124      4.27763      8.37449        -0.028873      0.087936     -0.025682
O	      8.34072      6.36198      8.51452        -0.019440      0.086445     -0.016502
O	      2.09636      6.17635      6.34400        -0.021021     -0.076594     -0.022416
O	      4.26555      8.40197      6.32274         0.094815      0.016818     -0.025526
O	      4.20283      6.21606      8.41264         0.031140     -0.014650     -0.060093
O	      6.35738      8.24795      8.36235         0.069772     -0.077186     -0.010332
O	      6.31335      6.26200     10.57946        -0.006698      0.011834     -0.047926
O	      8.38607      8.50941     10.42425         0.014766     -0.001859     -0.208942
