# total energy = -265.27379944 eV
 
CRYSTAL
PRIMVEC
0.027750 6.350225 6.414163 
6.269258 0.052659 6.389648 
4.178183 4.215640 0.036164 
PRIMCOORD
36 1
Li	      4.20241     10.50443      6.43998        -0.024556     -0.078075     -0.009857
Li	      8.41372      8.51762     12.79124         0.007870      0.031098     -0.041582
Li	      4.23154      8.49163      8.52283         0.006209     -0.011237     -0.016130
Li	      4.23030      0.06182      4.30969         0.002038      0.015662      0.062265
Li	      4.13385      4.21056      4.30186         0.024944      0.016646      0.031638
Li	      4.18948      2.15585      6.37928         0.009911      0.014058      0.008118
Li	      2.06903      6.29252      4.37458        -0.004342     -0.051901      0.043148
Li	      2.10359      4.26759      6.40597        -0.009666     -0.034951     -0.039556
Li	      6.26871      6.48992      8.53034        -0.043071     -0.003234     -0.039303
Ti	      6.30467      8.41015     10.70319         0.037798     -0.062822     -0.044995
Ti	      8.38261      4.31543      8.52451         0.059433      0.048006     -0.014578
Ti	      6.31189      4.26464      6.41410         0.025070      0.035699     -0.049047
Ti	      6.23162      4.39450     10.61251        -0.061109      0.082270     -0.010706
Ti	      4.09495      6.42573      6.40922        -0.244339      0.090217     -0.003644
Ti	      2.25357      2.10859      4.31965         0.169716     -0.053480     -0.030714
Ti	      8.40835      8.41737      8.61978         0.026428     -0.006076      0.040232
Mn	     10.43531      6.30693      8.48983         0.046283     -0.009960      0.005816
Cr	      6.23466     10.54369      8.55125        -0.016899      0.006423      0.014836
O	      2.11342      2.22313      2.27418         0.064699      0.143895      0.090506
O	      4.14397      4.16983      2.13790        -0.164468     -0.007175     -0.015647
O	      4.17663      2.11383      4.30429        -0.125073      0.002268      0.020975
O	      6.28455      4.24879      4.36100         0.041035      0.011662      0.125600
O	      6.25851      2.22305      6.31424         0.006636      0.072918     -0.128088
O	      8.29711      4.26948      6.51993        -0.077058      0.022817      0.115580
O	      2.08365      4.17608      4.22103         0.004827     -0.039762     -0.017026
O	      4.28822      6.43467      4.36626         0.053348      0.032879      0.128707
O	      4.24585      4.35397      6.43938         0.023326      0.043581      0.074847
O	      6.22167      6.34024      6.38012        -0.053377     -0.059845     -0.109919
O	      6.31376      4.34854      8.51985         0.012698      0.070241      0.038503
O	      8.33821      6.39901      8.57158        -0.050875      0.034301      0.001771
O	      2.22100      6.35690      6.41755         0.240461     -0.014203     -0.151889
O	      4.20967      8.36644      6.31015        -0.013594     -0.157322     -0.053139
O	      4.13888      6.27215      8.43137         0.021302     -0.096578     -0.163391
O	      6.33620      8.42568      8.68024         0.046136     -0.055941      0.135069
O	      6.27204      6.37757     10.68882         0.000235     -0.055405      0.034128
O	      8.34551      8.50037     10.68176        -0.041972      0.023327     -0.032525
