# total energy = -262.81456484 eV
 
CRYSTAL
PRIMVEC
0.037758 6.419777 6.278500 
6.383994 0.076614 6.239864 
4.282626 4.280906 0.024256 
PRIMCOORD
36 1
Li	      6.37458      0.19279      6.26058         0.005778      0.051344      0.009977
Li	      8.40517      2.19238      6.25247        -0.056781     -0.058959      0.042955
Li	      6.39834      4.32212      2.19182         0.002800     -0.002347     -0.030894
Li	      8.34096      4.26213      4.25413         0.003125     -0.005312      0.040463
Li	      6.46283      2.38709      4.20090         0.015269     -0.035670      0.023360
Li	      0.10485      2.08341      2.02018         0.044968      0.003983     -0.011114
Li	      4.48128      4.24445      4.16391         0.037869     -0.019387     -0.057105
Li	      6.44652      4.22723      6.12229         0.056523     -0.015311      0.015584
Li	      4.22012      6.37675      6.30392        -0.026012     -0.004462     -0.030164
Ti	      4.35077      8.61070      8.29045        -0.146462      0.090970     -0.006537
Ti	      2.17901      4.28551      2.10435         0.117464     -0.100261     -0.092199
Ti	      4.43749      2.19513      6.10424         0.552407     -0.199648     -0.179772
Ti	      4.33265      8.55929      4.31340         0.053558     -0.041462      0.116469
Ti	      2.22492      6.38953      4.27113         0.012012      0.050766      0.153620
Ti	      2.06523      4.38098      6.20966        -0.127838      0.093282     -0.104472
Ti	      6.36014      6.50822      8.33727        -0.114984     -0.040365      0.019989
Mn	      6.37339      6.23760      4.20150        -0.104589      0.038575     -0.010324
Fe	      4.29481      4.43025      8.34587        -0.032509     -0.313247      0.090699
O	      2.21340      2.29514      2.04453         0.057044      0.078585     -0.021253
O	      4.16632      4.17807      2.10284        -0.096204     -0.049618     -0.006523
O	      4.29391      2.15737      4.19960         0.031124      0.015236      0.216175
O	      6.41253      4.26706      4.16559        -0.007281     -0.036799     -0.009182
O	      6.26771      2.21029      6.27489        -0.571458     -0.005634     -0.076834
O	      8.50560      4.52886      6.35980         0.046352      0.163750      0.057202
O	      2.16684      4.30062      4.14116         0.051417     -0.040534     -0.027409
O	      4.20672      6.53580      4.20235        -0.096616     -0.004458      0.047433
O	      4.15113      4.17894      6.26774        -0.010817      0.077403      0.213986
O	      6.45559      6.55103      6.37063         0.039945      0.002318      0.083970
O	      6.48088      4.41889      8.40146         0.041096      0.180168      0.115894
O	      8.49242      6.46900      8.33511        -0.076015     -0.121877     -0.031672
O	      2.14841      6.37049      6.25126         0.014585     -0.140894     -0.067447
O	      4.28265      8.57561      6.31874        -0.050792     -0.000712      0.018583
O	      4.36641      6.54275      8.35738         0.238715      0.335846     -0.044362
O	      6.39194      8.55249      8.36602        -0.054405      0.040603     -0.012771
O	      6.56585      6.38379     10.36472         0.078954     -0.041362     -0.068921
O	      8.65662      8.53299     10.48634         0.071758      0.055489     -0.377404
