# total energy = -258.61639565 eV
 
CRYSTAL
PRIMVEC
-0.031200 6.334021 6.234228 
6.249917 -0.009198 6.212183 
4.178809 4.220187 -0.018281 
PRIMCOORD
36 1
Li	     10.34298      4.24567      6.19858        -0.039395      0.011461      0.001871
Li	      4.15977      8.40309      8.34742        -0.008391      0.003347      0.043142
Li	      4.22666      0.11584      4.10537         0.040249      0.088881      0.043527
Li	      6.17833      8.35274     10.34190        -0.049599     -0.018971      0.026686
Li	      2.11905      4.20246      2.01815         0.034942     -0.035100     -0.023180
Li	      2.12556      2.06206      4.06431         0.047778      0.051107     -0.058091
Li	      4.19837      6.37789      6.31352         0.012489     -0.052576      0.024545
Li	      8.29770      8.48323      8.30895         0.007920      0.023364     -0.000554
Li	      6.14997      6.38271      8.33190        -0.066000      0.022970      0.014034
Ti	      8.37884      2.14395      6.20154        -0.056467      0.349166      0.093064
Ti	      6.34787     10.44659      8.30696         0.281345     -0.003121      0.017600
Ti	      6.21780      4.36752      6.21461        -0.161372      0.073545      0.034740
Ti	      0.02511      4.22983      4.12914         0.100061      0.112893     -0.069897
Ti	      8.27549      6.30202     10.27991        -0.138259     -0.034333     -0.156700
Ti	      4.15552      4.08748      4.16746        -0.068061     -0.515771     -0.040186
Ti	      2.10339      4.17999      6.20489        -0.002219      0.022200      0.019553
Mn	      6.19850      2.08679      8.23070         0.015362     -0.046605     -0.065280
Ni	      8.24579      6.27391      6.26775         0.166242      0.139733     -0.002709
O	      2.11972      1.99484      1.95776         0.023615     -0.033068     -0.224950
O	      4.26177      4.20740      2.15676         0.078985     -0.007435      0.069437
O	      4.16620      2.22703      4.19910         0.042065      0.526094     -0.175642
O	      6.20381      4.26831      4.12178        -0.059308      0.026155     -0.011475
O	      6.39695      2.24337      6.12552         0.142944      0.155221     -0.054140
O	      8.28925      4.06746      6.20435        -0.151433     -0.456684     -0.032829
O	      2.07304      4.18403      4.07193         0.054428      0.044418      0.035359
O	      4.09281      6.36133      4.18834        -0.049145     -0.004295     -0.002249
O	      4.18995      4.35455      6.22572         0.096247      0.058794      0.036519
O	      6.18011      6.34960      6.20741        -0.100905     -0.432580     -0.030580
O	      6.23269      4.25348      8.26087         0.003335     -0.023537     -0.009706
O	      8.27295      6.30923      8.39266        -0.043700     -0.027338      0.426342
O	      2.04066      6.30455      6.23293         0.060435      0.066290      0.037758
O	      4.15055      8.43700      6.15645        -0.044686      0.012438     -0.033835
O	      4.00272      6.33190      8.35250        -0.370716     -0.028690      0.006473
O	      6.22097      8.50563      8.23709         0.050864      0.114778     -0.013887
O	      6.28653      6.21665     10.39073         0.098083     -0.130385     -0.014786
O	      8.38861      8.33073     10.41269         0.052265     -0.052365      0.090026
