# total energy = -253.43196162 eV
 
CRYSTAL
PRIMVEC
0.005494 6.208961 6.336884 
6.284602 -0.020379 6.363241 
4.170408 4.137105 0.006076 
PRIMCOORD
36 1
Li	      2.12573      6.23682      8.29989         0.032780     -0.043739     -0.065376
Li	      4.23578      6.13640     10.53818         0.004077      0.002495     -0.023428
Li	      6.20964      6.22895      4.27543        -0.035315      0.019260      0.041734
Li	      4.13902      4.20756      4.28749        -0.000179      0.025101      0.054275
Li	      4.18924      8.31364      4.36942         0.025940     -0.000413      0.038467
Li	      2.09620      6.16820      4.42008         0.014595     -0.008258     -0.055099
Li	      2.04623      4.23702      6.24609        -0.000223     -0.064642     -0.010331
Li	      4.06524      6.24955      6.27236         0.041265     -0.023238     -0.018223
Li	      6.24685      6.15652      8.48168        -0.004734      0.008156     -0.025931
Ti	      4.23918      8.19955      8.50586         0.115361     -0.114325      0.003895
Ti	      6.27410      8.17697     10.49274        -0.033173     -0.165914     -0.032936
Ti	      4.17467      6.17201      2.28877         0.069347      0.052102      0.666070
Ti	      2.11876      4.14919      2.28110        -0.077013     -0.001764      0.651610
Ti	      6.28578      4.20966      6.25248        -0.077534      0.164933     -0.270865
Ti	      4.18589      2.06776      6.20723        -0.121274      0.056670     -0.154833
Ti	      8.28864      8.33650      8.55354        -0.107869      0.093798      0.031598
Ni	      0.11925      6.13615      6.29678        -0.061364      0.017279     -0.018340
Ni	      2.17413      8.18714      6.27859         0.003306      0.090885     -0.040686
O	      2.08296      2.09269      2.08698         0.000857      0.031755      0.069291
O	      4.17076      4.11619      2.10821        -0.047800     -0.013086      0.118296
O	      4.14594      2.06478      4.22630         0.060540      0.004928      0.057393
O	      6.24495      4.00907      4.37641         0.044189     -0.016286      0.282569
O	      6.28047      2.07173      6.37902        -0.063645      0.124191      0.071667
O	      8.34175      4.15762      6.45449        -0.077833      0.050082     -0.050095
O	      2.06177      4.15556      4.09880         0.046061     -0.001990     -0.581127
O	      4.18466      6.20164      4.09885        -0.034450      0.017150     -0.624093
O	      4.27558      4.08867      6.44390         0.036654     -0.035135     -0.011958
O	      6.36060      6.13853      6.33102         0.057957     -0.168258     -0.000781
O	      6.28195      4.08302      8.37283         0.018221     -0.021046     -0.024758
O	      8.39854      6.21380      8.36633         0.030913     -0.013958      0.008645
O	      2.08624      6.22184      6.32701         0.094409     -0.088246      0.067810
O	      4.16819      8.27619      6.48771         0.062697     -0.094333      0.101595
O	      4.19026      6.18172      8.50681        -0.011526     -0.003612     -0.018184
O	      6.28278      8.25881      8.45763         0.026712     -0.015547      0.071683
O	      6.25702      6.30210     10.62514        -0.004123      0.179714     -0.128906
O	      8.33782      8.27827     10.53435        -0.027823     -0.044711     -0.180649
