# total energy = -262.07751162 eV
 
CRYSTAL
PRIMVEC
-0.003784 6.271652 6.307688 
6.227409 -0.002184 6.306175 
4.153880 4.182280 -0.003613 
PRIMCOORD
36 1
Li	      2.10007      8.24560      6.19900         0.029324      0.047527      0.001163
Li	      2.20543      6.20269      8.33350        -0.014515     -0.051745     -0.089873
Li	      6.28639      8.31374     10.49990         0.077942     -0.050785      0.016305
Li	      8.30302      6.29572      6.33589         0.075781     -0.012271      0.115519
Li	     10.28772      8.35320     10.50798        -0.081349      0.077993     -0.004359
Li	      8.25523      6.40344     10.50713        -0.064294      0.064667     -0.028513
Li	      4.08580      6.30072      6.28781        -0.072548     -0.033294      0.019698
Li	      8.27236      8.33842      8.46269         0.027515     -0.015331     -0.035620
Li	      6.25556      6.28954      8.44108        -0.009210     -0.033018      0.053086
Ti	      6.26790      0.04112      6.30671        -0.162294      0.030012      0.247506
Ti	      4.15081      2.13617      2.15971         0.151074      0.424624     -0.350412
Ti	      8.28286     10.35944     10.46947         0.392756     -0.551375     -0.122502
Ti	      4.18524      6.24999      2.15959        -0.404674     -0.209451     -0.433117
Ti	      2.08148      4.20500      2.16645         0.525372      0.257182     -0.245571
Ti	      4.17546      4.17904      4.14462        -0.419839     -0.088891     -0.402394
Ti	      6.25474      8.23687      6.27919         0.159033      0.284928      0.275274
V	      6.19999      4.19229      6.31246        -0.007798     -0.085058      0.218967
Co	      2.05272      2.10961      4.17253        -0.047473     -0.146397      0.332629
O	      2.09953      2.12047      2.00170        -0.279090     -0.110054      0.503883
O	      4.22998      4.22165      2.06876         0.348432     -0.069164     -0.029509
O	      4.21586      2.07735      4.19908        -0.822438     -0.097848      0.123233
O	      6.22303      4.13495      4.18707         0.066641      0.583485     -0.059748
O	      6.23426      2.05437      6.38268         0.062587     -0.096331      0.019519
O	      8.34354      4.18755      6.33223         0.000489     -0.006974     -0.120441
O	      2.09234      4.24185      4.20373        -0.129464     -0.554503      0.064673
O	      4.08899      6.23273      4.16252         0.947348      0.128598      0.061782
O	      4.07713      4.20110      6.24812        -0.074823     -0.051892      0.034213
O	      6.21079      6.33084      6.33589         0.008255      0.171815     -0.438046
O	      6.28369      4.11261      8.42142        -0.066714     -0.046737      0.053860
O	      8.39869      6.18155      8.41222        -0.063943      0.071723      0.112234
O	      1.94784      6.17080      6.28415         0.075738     -0.077568     -0.076942
O	      4.22023      8.40127      6.34759        -0.049373     -0.018768      0.014897
O	      4.14430      6.37640      8.55733        -0.005516     -0.032544      0.195331
O	      6.12699      8.37172      8.25676         0.035692     -0.074433     -0.055133
O	      6.10460      6.29367     10.64306        -0.129692      0.055284     -0.005973
O	      8.27758      8.51303     10.49675        -0.078929      0.316592      0.034380
