# total energy = -265.40054966 eV
 
CRYSTAL
PRIMVEC
-0.004982 6.281331 6.294416 
6.222893 0.013951 6.275413 
4.160139 4.186572 -0.002133 
PRIMCOORD
36 1
Li	      6.16940      0.09465      6.21394        -0.007406     -0.015383      0.039263
Li	      8.31157      4.16202      4.36383        -0.020192      0.027756      0.010407
Li	      6.05445      2.16956      8.22918        -0.032298     -0.029093     -0.030686
Li	      8.37823      6.23956      6.35221        -0.001085     -0.031194     -0.042129
Li	      6.26658      4.12527      6.35494        -0.007528     -0.001917     -0.004075
Li	      2.09004      6.33027      4.23616        -0.025407     -0.027480     -0.001963
Li	      2.13598      4.26447      6.25943         0.013853      0.038621      0.002528
Li	      4.10629      6.22889      6.32484         0.004515      0.015670      0.029417
Li	      4.23850      4.11117      8.22159        -0.031414     -0.015192     -0.103749
Ti	      6.25052     10.38831      8.32364         0.023719     -0.092424     -0.193458
Ti	      4.20536      8.36286      8.30590         0.056732      0.018928     -0.024288
Ti	      6.21748      8.33757     10.41477         0.006227     -0.019937      0.092734
Ti	      4.17237      4.29613      4.34396        -0.059472     -0.006833      0.449581
Ti	      0.01786      4.18431      4.19240        -0.034090      0.083111     -0.070575
Ti	      6.17615      6.27617      4.36649         0.065322     -0.045992      0.243020
Ti	      6.24213      6.34464      8.38509         0.125156      0.073827     -0.026485
V	      8.30365      4.21682      8.37012         0.027725     -0.008786      0.036184
Cr	      8.25546      2.12041      6.25586         0.004975     -0.028454      0.072900
O	      2.09035      2.04227      2.11031        -0.012879     -0.090623     -0.014739
O	      4.21089      4.16559      2.17570         0.184606     -0.018106      0.008667
O	      4.14670      2.15198      4.11018         0.054465     -0.005401      0.081146
O	      6.23148      4.20141      4.13591        -0.057956      0.033101      0.015182
O	      6.27102      2.09263      6.14825        -0.010853      0.024358     -0.042979
O	      8.30450      4.09083      6.34307        -0.029119     -0.008950     -0.180698
O	      2.08156      4.19059      4.23010        -0.050244     -0.004816      0.152693
O	      4.13473      6.31573      4.18395         0.065820     -0.021217      0.040460
O	      4.17502      4.19922      6.16022        -0.000575      0.028685     -0.511426
O	      6.20481      6.28434      6.23677         0.029415      0.015911     -0.211383
O	      6.20378      4.23688      8.45896        -0.111460      0.010161      0.140354
O	      8.17949      6.28488      8.35950        -0.146907      0.116053      0.031776
O	      2.06315      6.35262      6.41017         0.009687      0.005242      0.117022
O	      4.10634      8.37037      6.26949        -0.010341     -0.012933      0.007471
O	      4.14139      6.32063      8.39142        -0.036580      0.037085     -0.051123
O	      6.30865      8.39114      8.26563         0.031650     -0.040038      0.027909
O	      6.20615      6.27142     10.45159        -0.008242     -0.026268     -0.087589
O	      8.29571      8.37843     10.53946        -0.009820      0.022526     -0.001369
