# total energy = -263.59277448 eV
 
CRYSTAL
PRIMVEC
0.019798 6.283763 6.301409 
6.312136 -0.003791 6.324945 
4.190826 4.187688 0.014897 
PRIMCOORD
36 1
Li	      2.12583      1.99680      0.18455         0.041776      0.021836     -0.025088
Li	      2.11409      6.29734      8.34306         0.007214     -0.058914     -0.022205
Li	      4.24028      8.34458      8.37895         0.013244      0.018616      0.004519
Li	      0.08401      2.00542      2.07919         0.026427     -0.017385      0.022818
Li	      4.22253      4.15106      4.23310         0.002057     -0.011269      0.019193
Li	      4.17097      2.19544      6.29505         0.002901     -0.033642     -0.026904
Li	      6.32707      8.37231      6.37839         0.020761      0.069820     -0.001473
Li	      4.21696      6.26686      6.40338        -0.017271     -0.041831     -0.021026
Li	      6.25079      6.39241      8.24141        -0.034752      0.054594     -0.038568
Ti	      4.19382      4.22605      0.11125         0.133568     -0.068841      0.291301
Ti	      4.21121      6.28403     10.45376         0.124433     -0.060674     -0.173338
Ti	      8.38852      4.18642      8.39821         0.061683      0.014787     -0.164993
Ti	      6.31267      4.20950      6.39637        -0.089532      0.123817      0.121928
Ti	      4.19884      8.36457      4.22053        -0.268558     -0.062373      0.129866
Ti	      8.48716      6.34902     10.48242         0.221846      0.141880      0.057937
Ti	      8.35516      8.31643      8.44030        -0.215364      0.012200     -0.039897
V	      6.32570      8.34450     10.51726        -0.071725     -0.039886     -0.037125
Fe	      2.13052      2.09429      4.20118        -0.081375      0.021191     -0.013145
O	      2.07502      2.25924      2.14729         0.015320      0.163380     -0.016467
O	      4.14091      4.20661      2.03756        -0.034361     -0.024162     -0.226842
O	      4.24065      1.97706      4.19452         0.087723     -0.204032     -0.020426
O	      6.34867      4.13402      4.29536         0.047675      0.067193      0.063285
O	      6.30619      2.07331      6.33950        -0.001167      0.020727      0.045042
O	      8.43963      4.17452      6.30045        -0.016409      0.020163     -0.013815
O	      2.06791      4.27312      4.17373         0.035301      0.018968     -0.018705
O	      4.13227      6.34104      4.23911        -0.254331      0.109739     -0.022530
O	      4.32807      4.16141      6.40903         0.061043      0.028228      0.049504
O	      6.32661      6.11712      6.28185        -0.022024     -0.257980      0.039438
O	      6.27240      4.19410      8.46907         0.013674      0.019514     -0.015319
O	      8.39060      6.24301      8.40997         0.004683     -0.097129      0.075490
O	      1.95958      6.31797      6.20802        -0.108648     -0.061247     -0.010122
O	      4.18378      8.51439      6.20473         0.056073      0.080992     -0.116947
O	      4.22684      6.21054      8.49568        -0.025134      0.027801      0.154821
O	      6.44824      8.35553      8.41823         0.160214      0.025482     -0.024360
O	      6.35837      6.24858     10.51600        -0.015308     -0.086443      0.065020
O	      8.42010      8.41298     10.61310         0.118342      0.064879     -0.090865
