# total energy = -101.96015088 eV
 
CRYSTAL
PRIMVEC
0.000349 2.124502 2.123286 
5.979805 4.753830 -6.874477 
-4.048390 2.358038 -2.358421 
PRIMCOORD
16 1
Li	     -0.17166      0.55779     -0.55744         0.007836      0.012317     -0.014878
Li	     -2.43257      4.51273     -2.39048        -0.004201      0.004205     -0.006040
Li	     -0.17014      4.53880     -4.53800        -0.018318     -0.033324      0.030175
Li	     -0.28593      2.33223     -2.33326         0.018255      0.011053     -0.011281
Ti	      1.85252      4.48947     -2.36496        -0.668522     -0.130654      0.131303
Ti	      4.40727      4.47298     -4.47077         0.296644      0.075570     -0.076359
Ni	      2.22024      6.64173     -4.51917         0.001963     -0.019263      0.019945
Ni	     -2.13840      2.71521     -0.59215        -0.156142     -0.072943      0.075245
O	      0.09039      6.90743     -4.78498        -0.080381      0.067710     -0.064810
O	      0.10625      4.72243     -2.59756         0.657962     -0.061177      0.060725
O	      2.25550      4.48983     -4.49043         0.040103     -0.079345      0.080052
O	     -0.28883      2.45963     -0.33576         0.238157     -0.026613      0.025714
O	      1.99375      2.58981     -2.58889         0.002116      0.173681     -0.177771
O	      2.18231      6.54984     -6.55193        -0.399561      0.084335     -0.078146
O	     -2.37158      2.52212     -2.52331        -0.048267      0.140436     -0.138608
O	      4.28023      6.41041     -4.28660         0.112356     -0.145989      0.144733
