# total energy = -263.37619703 eV
 
CRYSTAL
PRIMVEC
0.004849 6.270542 6.332202 
6.263200 0.011094 6.326043 
4.164341 4.165147 0.018438 
PRIMCOORD
36 1
Li	      4.23808     10.39689      6.39650        -0.048300     -0.026223     -0.036281
Li	      2.06603      2.07893      0.05855         0.029508      0.053408     -0.038688
Li	      4.11889      2.10133      2.06997        -0.011974      0.001003     -0.021869
Li	      8.27788      4.22690      4.28362         0.011517      0.041512      0.027361
Li	      0.07838      2.01414      2.04396        -0.014666      0.035046     -0.043698
Li	      2.13784      2.02727      4.16205         0.019211     -0.036608     -0.026946
Li	      6.37251      4.14740      6.28124         0.064792     -0.014760      0.006940
Li	      2.06228      6.23626      4.31462        -0.046345     -0.011764      0.035163
Li	      6.12576      8.41383      6.35173        -0.006949     -0.013816      0.043193
Ti	      6.32224      8.37808     10.54346         0.036669     -0.012017      0.062786
Ti	      2.08613      4.08057      2.11446         0.018451     -0.251164     -0.139908
Ti	      4.13850      4.22617      4.27975         0.020709     -0.012342      0.019537
Ti	      4.22366      2.12601      6.30653         0.138068     -0.096034     -0.030263
Ti	      4.12314      8.30608      4.24992         0.017092      0.007875      0.097217
Ti	      4.06092      6.25420      6.31887        -0.205757      0.083372     -0.017410
Ti	      6.28052      6.25707      8.41329        -0.139930      0.058206      0.063630
Ti	      4.21783      4.18749      8.46371         0.027698      0.006591      0.011005
Cu	      1.97172      0.17082      2.01903        -0.117291      0.066309     -0.155834
O	      2.06825      2.23578      2.09774         0.071957      0.295479      0.059239
O	      4.04268      4.18472      2.26078        -0.017600     -0.045922      0.012289
O	      4.22523      2.12847      4.27903         0.020037     -0.025004      0.029893
O	      6.15669      4.07770      4.28965         0.070934     -0.022771     -0.016229
O	      6.18083      2.08256      6.22979        -0.083709      0.016682     -0.026001
O	      8.34416      4.31243      6.45437         0.069220      0.012004      0.035491
O	      2.10553      4.19486      4.19391         0.003759     -0.030983     -0.012969
O	      4.19742      6.29529      4.24805        -0.051254     -0.020381      0.014399
O	      4.16744      4.18177      6.36451         0.067883     -0.033988     -0.038488
O	      6.28381      6.25574      6.41800         0.035245      0.018159      0.085651
O	      6.28874      4.17945      8.42917         0.015236     -0.015748     -0.031180
O	      8.36135      6.26272      8.43531        -0.019918     -0.010036      0.005009
O	      2.20904      6.24013      6.29326         0.119304     -0.017041      0.073452
O	      4.18202      8.26831      6.24428        -0.075947     -0.031250     -0.002075
O	      4.27280      6.24231      8.41242         0.078866      0.027707      0.042192
O	      6.29268      8.25764      8.51535        -0.037255     -0.034696     -0.035366
O	      6.28288      6.25040     10.45937        -0.020258      0.058921     -0.024060
O	      8.34254      8.37598     10.56449        -0.038999     -0.019723     -0.027179
