# total energy = -266.01084876 eV
 
CRYSTAL
PRIMVEC
-0.046226 6.267996 6.219257 
6.293130 -0.055948 6.229202 
4.154669 4.144645 0.003336 
PRIMCOORD
36 1
Li	      4.11691      4.12650      0.07188         0.064725     -0.011874     -0.041950
Li	      8.36724      2.07632      6.29055        -0.012997     -0.034561     -0.053079
Li	      4.10943      8.34631      8.19106         0.002529      0.001083      0.004043
Li	      8.36031     10.34304     10.44128         0.038949     -0.022395      0.030126
Li	      6.27312      8.22212     10.39493         0.062868     -0.078970      0.015920
Li	      0.07886      2.00935      2.00709         0.010185      0.011727     -0.030528
Li	      2.16993      4.04416      2.02504         0.023960     -0.031245      0.020289
Li	      6.09356      8.37563      6.26049         0.021937      0.020299     -0.019258
Li	      4.03193      6.40329      6.24500        -0.064495      0.013765     -0.002622
Ti	      2.07834      6.19169      8.23281        -0.057821     -0.007558     -0.244622
Ti	      6.22186      6.17628      4.15184         0.097345      0.085855      0.063975
Ti	      4.21324      4.16362      4.16670        -0.020737     -0.088040      0.076479
Ti	      8.41741      6.14031      6.26097         0.182767     -0.108098     -0.192556
Ti	      6.19897      4.17499      6.24371        -0.029087     -0.024382     -0.045394
Ti	      4.14447      8.31188      4.22146        -0.176046      0.332428      0.089177
Ti	      4.20099      4.19531      8.22222        -0.005975      0.010853      0.117333
Ti	      6.15652      6.18462      8.23050        -0.067463      0.070441      0.282868
Fe	      2.03352      6.24061      4.26412        -0.195655      0.163398      0.108687
O	      2.11011      1.95661      2.18328        -0.053036      0.011678      0.015862
O	      4.26846      4.11556      2.17886         0.018292      0.027601      0.017871
O	      4.12714      2.10274      4.25215        -0.007315      0.011432      0.081962
O	      6.29366      4.08733      4.11513         0.033816     -0.014904     -0.102194
O	      6.17164      2.11121      6.22533        -0.111365     -0.019552      0.035054
O	      8.26798      4.21856      6.25689         0.044196      0.051906      0.011771
O	      2.07994      4.13378      4.10497        -0.061449     -0.361612     -0.004803
O	      4.15572      6.22720      4.16126         0.331249      0.009096     -0.028865
O	      4.08857      4.14233      6.20310        -0.013311     -0.061622      0.002863
O	      6.26075      6.27822      6.20678        -0.003573      0.031418     -0.022827
O	      6.28768      4.09467      8.32848         0.017601     -0.008651      0.116738
O	      8.26622      6.24228      8.27481         0.024593     -0.008744     -0.177014
O	      2.02502      6.26905      6.31533         0.057280     -0.030734      0.475223
O	      4.10767      8.35504      6.06057         0.012166     -0.045599     -0.174561
O	      4.13594      6.24515      8.26662         0.015284      0.002966     -0.017539
O	      6.24922      8.29884      8.30309        -0.056716      0.075151     -0.077729
O	      6.24893      6.14216     10.27072        -0.349963     -0.292129     -0.195333
O	      8.41653      8.27056     10.26916         0.227264      0.319573     -0.135370
