# total energy = -260.62344036 eV
 
CRYSTAL
PRIMVEC
0.026067 6.285348 6.318782 
6.261892 0.043475 6.301470 
4.176657 4.180774 0.026834 
PRIMCOORD
36 1
Li	     10.28806      4.22569      6.30581        -0.065634     -0.023207      0.012368
Li	      8.37701      2.22411      6.28621         0.038408      0.053641     -0.095022
Li	      8.39285      4.21266      4.31341         0.027689      0.004863     -0.005277
Li	      8.35977      4.24124      8.38806        -0.020577      0.123661     -0.028217
Li	      2.17963      2.17733      4.17230        -0.013293      0.090098      0.093555
Li	      4.16098      4.11642      4.20617        -0.044468      0.028812     -0.011811
Li	      8.36147      6.22255      6.27471        -0.001357      0.004196      0.039563
Li	      6.27462      4.32865     10.54400        -0.017989     -0.060630     -0.041900
Li	      6.34085      6.17931      8.50267         0.046065     -0.054912     -0.017330
Ti	      4.11478      2.08508      2.09058        -0.016730     -0.167063      0.037102
Ti	      6.21316      2.14102      4.17067        -0.057833      0.005253     -0.252618
Ti	      4.31184      6.14915      2.15237         0.235612     -0.211982     -0.096391
Ti	      6.36205      4.23300      6.29652         0.580740      0.171761      0.214673
Ti	      2.11478      6.25287      4.21669        -0.478518     -0.160639     -0.234797
Ti	      6.29560      8.36473      6.38308         0.037935     -0.151584     -0.077760
Ti	      4.19213      6.28403      6.35844         0.174958     -0.002843      0.201525
Ti	      4.10399      4.30997      8.35715         0.124492     -0.135784      0.033176
Ni	      6.17242      4.40646      2.26353        -0.354545      0.754988      0.312076
O	      2.11134      2.22793      2.11991         0.019778      0.108631     -0.002733
O	      4.14534      4.19278      2.11083        -0.244625     -0.236920     -0.044674
O	      4.22830      2.09389      4.13878         0.217048      0.015273     -0.139138
O	      6.27734      4.08223      4.33828         0.006116     -0.239012      0.210961
O	      6.26635      2.17830      6.32975         0.099780      0.049664      0.158424
O	      8.23206      4.24813      6.32963        -0.694992     -0.045756     -0.078748
O	      2.09324      4.30150      4.31669         0.018234      0.310330      0.189015
O	      4.19221      6.28027      4.20692        -0.452771     -0.034403     -0.301862
O	      4.21148      4.16471      6.26210         0.003183      0.136669      0.109228
O	      6.25192      6.29405      6.34216        -0.214143     -0.061816     -0.139266
O	      6.17948      4.14358      8.35485        -0.116327     -0.151204     -0.367001
O	      8.43717      6.37138      8.47784         0.373264      0.102493      0.560333
O	      2.17274      6.23236      6.22541         0.231929     -0.066488     -0.484407
O	      4.20395      8.37782      6.32678         0.118292     -0.128462      0.261664
O	      4.21483      6.29850      8.41985         0.409141     -0.015950     -0.039073
O	      6.23676      8.24110      8.42968        -0.059134     -0.117551      0.038513
O	      6.38938      6.41095     10.52571         0.372878      0.237661      0.043602
O	      8.35189      8.33758     10.49538        -0.282608     -0.131786     -0.057752
