# total energy = -271.26510756 eV
 
CRYSTAL
PRIMVEC
0.011945 6.236807 6.307559 
6.203736 0.018598 6.300919 
4.135696 4.153286 0.012449 
PRIMCOORD
36 1
Li	      4.16228     10.27498      6.34842        -0.000873      0.028831     -0.009741
Li	      2.15176      8.33733      6.32333        -0.042639     -0.006296      0.010498
Li	      4.09453      2.16671      2.01195         0.030205     -0.039451     -0.005193
Li	      8.35938     10.37670     10.57645        -0.010725      0.004750      0.018038
Li	      2.22355      4.09048      2.10033        -0.025230      0.002836     -0.015552
Li	      3.94935      4.14830      4.14247        -0.024358     -0.011776      0.016022
Li	      2.02760      6.17127      4.30349        -0.009260     -0.012292      0.013622
Li	      2.01880      4.27788      6.25388         0.012443     -0.049462     -0.002422
Li	      8.21662      8.33029      8.44852         0.028520      0.015782     -0.030523
Ti	      6.23066     10.36078      8.43651        -0.028754      0.009874     -0.024698
Ti	      6.25132      8.33446     10.53135         0.048583     -0.002475      0.003201
Ti	     10.30944      6.28379      8.42320        -0.003430      0.008335      0.072185
Ti	      6.23931      6.20488      4.25013         0.050860      0.050880     -0.032823
Ti	      4.14319      2.10322      6.31053        -0.094802      0.047033     -0.008986
Ti	      6.23862      4.20642      6.27106        -0.008819      0.033146     -0.018846
Ti	     10.27060      8.33030     10.48292         0.024936      0.045039     -0.025815
Ti	      4.15532      6.24872      6.26349        -0.022143     -0.003292     -0.029140
Ti	      6.23168      6.25263      8.44485         0.007118     -0.016231     -0.036241
O	      2.03396      2.04435      2.15841         0.000358     -0.025474     -0.005623
O	      4.24837      4.23768      2.12653         0.065515      0.046039     -0.013621
O	      4.16264      2.09838      4.23271         0.033835     -0.000994      0.024859
O	      6.24224      4.15726      4.21957        -0.000310      0.006518     -0.025958
O	      6.24551      2.09070      6.31617         0.007108     -0.007230      0.012796
O	      8.23810      4.26063      6.33355        -0.046996      0.007748     -0.010287
O	      1.94161      4.05081      4.16432        -0.061656     -0.063789      0.027695
O	      4.10976      6.19230      4.20379        -0.026106     -0.004892      0.023517
O	      4.17069      4.15566      6.28846         0.070453      0.002091      0.018399
O	      6.22243      6.36323      6.34652        -0.032643     -0.016379      0.002008
O	      6.17972      4.19444      8.35569         0.030970     -0.018571      0.007383
O	      8.27530      6.25039      8.40919        -0.030090      0.012225      0.003462
O	      2.17344      6.21358      6.43078         0.033004      0.022888      0.032545
O	      4.13043      8.24537      6.21615         0.017390     -0.058619      0.004199
O	      4.14905      6.24641      8.35527        -0.034519      0.002027     -0.026961
O	      6.20420      8.30315      8.46108         0.009256     -0.006690      0.001557
O	      6.21505      6.26065     10.48980        -0.005372      0.012870     -0.002570
O	      8.26768      8.33050     10.49110         0.038170     -0.014998      0.033016
