# total energy = -227.59273940 eV
 
CRYSTAL
PRIMVEC
0.022955 6.250116 6.373893 
6.237289 0.018144 6.378466 
4.160614 4.172161 0.009786 
PRIMCOORD
36 1
Li	      4.19448      4.18746      0.19344         0.030151     -0.005595      0.014697
Li	      1.98204      0.14764      2.04402         0.018971     -0.052904     -0.039601
Li	      4.00622      2.22704      2.06485         0.048458     -0.038908     -0.037324
Li	      4.24381      6.11936      2.13505        -0.036884      0.024483     -0.022996
Li	      2.22726      4.05162      2.08686         0.016360      0.035107     -0.021351
Li	      2.06675      2.12369      4.06602         0.028547     -0.020720     -0.074144
Li	      8.32542      6.25424      6.46761        -0.032711      0.010367     -0.005241
Li	      2.13690      6.21689      4.22532         0.020378     -0.026911     -0.008338
Li	      2.09343      4.19964      6.39112        -0.002745     -0.010184     -0.005769
Sc	      6.25086      4.12108      6.48085        -0.057077      0.054647      0.033808
Mn	      4.09991      6.28842      6.42454         0.113144     -0.105933      0.016554
Cr	      6.28915      8.32437     10.63606        -0.064409      0.044673      0.030106
Cr	      6.29221      6.29950      8.51521        -0.082204     -0.011977     -0.067380
Fe	      4.14864      0.09590      4.26170        -0.075159     -0.004800     -0.011867
Fe	      4.06547      4.20973      4.06779        -0.001078     -0.031964      0.229146
Fe	      0.15874      4.06876      4.24656        -0.053028      0.018179     -0.031876
Co	      2.11857      8.30916      6.40315         0.032602     -0.022126      0.145609
Co	      8.30574      8.33393      8.53544         0.006310      0.053135     -0.036954
O	      2.07146      2.11563      1.90736         0.004172     -0.008180     -0.005386
O	      4.16734      4.16070      2.23566         0.019441     -0.023564     -0.340955
O	      4.24560      2.09233      4.30764         0.065553      0.016224      0.005717
O	      6.22087      4.10621      4.34244         0.032066     -0.038502      0.028910
O	      6.36515      2.05722      6.28119         0.003742      0.020039     -0.052734
O	      8.31060      4.08443      6.27078        -0.018265     -0.040548      0.054643
O	      2.08647      4.15172      4.26424         0.011593      0.033975     -0.017576
O	      4.20978      6.24302      4.24361        -0.021064     -0.000205     -0.023462
O	      4.12923      4.25559      6.51976         0.056499      0.054539      0.015913
O	      6.09196      6.23388      6.52524        -0.038308     -0.000000      0.063956
O	      6.13930      4.24113      8.58441        -0.044604      0.039028     -0.002311
O	      8.25412      6.42104      8.46327         0.027542      0.111700      0.076715
O	      2.20592      6.38713      6.38004        -0.061439      0.057049     -0.029848
O	      4.07884      8.29116      6.26130        -0.033855     -0.022973      0.033306
O	      4.22535      6.15335      8.63436         0.033946     -0.095500      0.009204
O	      6.38043      8.28482      8.61847         0.050969      0.006327      0.076206
O	      6.22436      6.27131     10.54668         0.027670     -0.000506      0.011373
O	      8.34791      8.40787     10.57241        -0.025282     -0.017471     -0.010752
