# total energy = -226.33211732 eV
 
CRYSTAL
PRIMVEC
-0.015667 6.284664 6.152798 
6.429856 -0.031403 6.168628 
4.261128 4.174835 0.004387 
PRIMCOORD
36 1
Li	      4.34767     10.32797      6.18507         0.009331      0.000641     -0.023715
Li	      2.17306      8.32439      6.17180         0.017975     -0.007894      0.020863
Li	      6.25717      4.15413      2.00123        -0.047833      0.014578      0.011358
Li	      4.28749      2.22686      1.95645         0.009878      0.031782      0.032906
Li	      4.24584      4.14844      4.07445         0.016429     -0.009492     -0.029015
Li	      4.28920      2.13474      6.11953        -0.017290      0.027563     -0.022781
Li	      6.38927      4.13712      6.16162        -0.005927      0.016821      0.001537
Li	      0.05540      4.24452      4.20230         0.030891      0.012912      0.012801
Li	      6.30656      8.42673      6.16061        -0.018046     -0.064117      0.004362
Sc	      4.17288      6.35970      6.08751         0.065762     -0.042060     -0.006570
Mn	      4.27925      4.16425      8.19691        -0.033412      0.107851     -0.109198
Cr	      6.44915      2.05972      8.17512         0.080070     -0.023521     -0.070348
Cr	      2.18964      2.07744      4.12326         0.062975     -0.062778     -0.008869
Fe	      8.54453      4.15709      4.28590        -0.023437      0.064327     -0.029769
Fe	      6.36193      2.11790      4.25895        -0.037200      0.028508     -0.136051
Fe	      2.26615      4.10559      1.96952        -0.064272      0.163554     -0.186847
Fe	      6.40840      6.26104      8.14101         0.028480     -0.064944      0.051782
Cu	      2.05596      6.21032      4.18611         0.048367     -0.064424      0.000235
O	      2.03279      2.13459      2.10253        -0.043601     -0.101713     -0.013276
O	      4.19105      4.27725      2.02702         0.191549      0.038411      0.009822
O	      4.27894      2.00608      4.06999        -0.038172      0.095574     -0.038981
O	      6.51557      4.17648      4.09586        -0.049745      0.016302     -0.015690
O	      6.39028      2.09431      6.15494        -0.013914     -0.013134      0.252309
O	      8.51556      4.16391      6.21838        -0.038651      0.018865      0.017362
O	      2.14775      4.11757      3.94309        -0.033447      0.064724      0.291820
O	      4.43884      6.22742      4.03619         0.055128      0.009511     -0.041172
O	      4.26747      4.17134      6.34434         0.001534     -0.022544      0.169320
O	      6.39113      6.26106      6.18615        -0.035092      0.005192     -0.092280
O	      6.30005      4.15589      8.23896        -0.110981     -0.050217      0.053654
O	      8.56438      6.30728      8.33370         0.041959      0.021061     -0.089498
O	      2.13378      6.25652      6.07657        -0.039999     -0.030618      0.049878
O	      4.25367      8.31323      6.19331         0.011151      0.018750     -0.009970
O	      4.37127      6.09238      8.23882        -0.096286     -0.129051      0.005943
O	      6.58180      8.26871      8.28709         0.095908      0.087585     -0.001736
O	      6.28295      6.34037     10.17947        -0.011590     -0.042334      0.034126
O	      8.44431      8.39418     10.18869        -0.008490     -0.115671     -0.094314
