# total energy = -91.11945688 eV
 
CRYSTAL
PRIMVEC
0.000002 2.061442 2.061560 
4.074876 -0.000048 0.000052 
-0.000149 8.805175 -8.805843 
PRIMCOORD
16 1
Li	      2.03806      2.26393     -0.20504         0.000282      0.036664     -0.037367
Li	      0.00047      4.42292     -0.30263         0.000201     -0.005773      0.005545
Li	      2.03785      4.13117     -2.07236        -0.000017     -0.001845      0.005300
Li	      0.00040      8.63739     -4.51689        -0.000358     -0.059473      0.058633
Mn	      0.00049     10.84012     -6.71943         0.000081      0.084911     -0.085774
Mn	      2.03780      6.59821     -4.53952         0.000065     -0.004924      0.004317
Ni	      0.00035      6.42379     -2.30346        -0.000041      0.144470     -0.143524
Ni	      2.03790      8.68929     -6.63003        -0.000417     -0.167301      0.167862
O	      2.03783      8.60353     -4.48315         0.000135      0.023331     -0.025772
O	      0.00046      8.80576     -6.74663         0.000126      0.060077     -0.060001
O	      2.03778      6.73037     -2.61028        -0.000437     -0.059149      0.059957
O	      0.00036      6.54862     -4.48980         0.000184      0.015931     -0.015996
O	      2.03796      4.23326     -0.11281         0.000396     -0.006737      0.005553
O	      0.00040      4.47640     -2.41766         0.000107     -0.128523      0.128828
O	      2.03795     10.69713     -6.57631        -0.000092      0.123344     -0.122941
O	      0.00067      1.86665      0.19325        -0.000217     -0.055002      0.055380
