# total energy = -101.29738453 eV
 
CRYSTAL
PRIMVEC
0.000036 2.065993 2.067203 
9.086393 -4.270259 4.272866 
2.167751 4.130742 -2.065749 
PRIMCOORD
16 1
Li	      0.44204      1.92516      2.21247         0.003638     -0.029123      0.031707
Li	      2.48369      1.89614      0.17547        -0.021417      0.009641     -0.012518
Li	      2.35265     -0.02815      2.09883        -0.033897      0.010516     -0.008077
Li	      6.47354      0.02054      2.04916         0.023607      0.008357     -0.012700
Ti	      8.83489      2.00361      2.13162        -0.340813      0.069375     -0.071053
Ti	      9.21968     -0.11858      4.25554         0.790804     -0.096375      0.100831
Ni	      4.24087      2.01937      2.11749         0.088667     -0.022460      0.024963
Ni	      6.46505      2.08032     -0.01099         0.106009     -0.068721      0.072135
O	      6.99959      2.02628      2.10933         0.404618     -0.071170      0.073544
O	      6.89733     -0.17477      4.31254        -0.020987     -0.091253      0.095065
O	      8.96258     -0.07774      2.14718        -0.003788      0.008162     -0.006769
O	      8.85403     -2.03840      4.10814        -0.034256      0.117040     -0.113970
O	      1.89049      4.17508     -0.04015        -0.764295      0.015737     -0.018839
O	      2.25686      2.01808      2.11962        -0.107858     -0.021013      0.020049
O	      4.51136      1.93465      0.13655        -0.111808      0.112330     -0.122161
O	      4.57441     -0.07426      2.14556         0.021775      0.048957     -0.052207
