# total energy = -224.61029510 eV
 
CRYSTAL
PRIMVEC
-0.012598 6.315816 6.158061 
6.316351 0.005500 6.139639 
4.224830 4.212673 -0.010677 
PRIMCOORD
36 1
Li	      0.14340      6.28175      6.11571         0.001093      0.033271     -0.037276
Li	      2.09712      8.32912      6.11558        -0.020524     -0.008086     -0.026109
Li	      6.31882      2.08920      4.17713         0.006652      0.001205      0.045468
Li	      6.29947      6.39875      4.17590         0.015319     -0.037411      0.049070
Li	      4.13293      4.17014      4.18417        -0.002833     -0.040921      0.023815
Li	      4.19479      2.18601      6.07132        -0.006791     -0.004691     -0.031085
Li	      2.13488      6.30293      4.22651         0.011355      0.015245      0.009543
Li	      2.07406      4.26539      6.01763         0.024190      0.007901      0.001761
Li	      4.17338      6.33247      6.02394        -0.005524     -0.016162     -0.009464
Sc	      8.49954      4.26909      4.21158        -0.030533      0.087935      0.176355
Mn	      2.07033      6.32962      8.16405         0.006098     -0.038695      0.537616
Cr	      4.20800      8.43200      8.13615        -0.027426     -0.026127      0.151368
Cr	      4.22703      6.30269      2.06617        -0.136368      0.002873     -0.139876
Fe	      2.15570      4.18159      2.11246         0.091096      0.043382     -0.269194
Fe	      6.23081      4.18880      6.01990         0.051366      0.024192      0.002506
Fe	      8.34561      8.41656      8.17324         0.218404     -0.066736     -0.118919
Fe	      6.37926      6.33473      8.14963        -0.063152      0.025026     -0.050896
Ni	      4.24091      8.38291      4.20619        -0.007636      0.028093      0.006641
O	      2.10311      2.08659      2.04699         0.077612      0.700969      0.014816
O	      4.22363      4.22889      2.03625        -0.703870     -0.029833      0.010996
O	      4.24083      2.08357      3.97079        -0.009518     -0.057463     -0.109525
O	      6.36554      4.19400      4.01456         0.018678      0.007842      0.182673
O	      6.29954      2.22574      6.22987         0.017869     -0.111794      0.060704
O	      8.30073      4.22745      6.23432         0.072150     -0.027459     -0.058902
O	      2.05476      4.21601      4.00231         0.044406     -0.005921      0.125078
O	      4.20918      6.37208      3.98901         0.006336     -0.035267      0.036085
O	      4.28394      4.22104      6.23292        -0.160769     -0.010191      0.045999
O	      6.32074      6.18186      6.24694        -0.040383      0.097381     -0.033908
O	      6.31093      4.17448      8.18721        -0.016483     -0.009637     -0.032832
O	      8.45453      6.32755      8.18192         0.025121      0.016100      0.012335
O	      2.08963      6.32037      6.35643         0.020728     -0.006755     -0.760330
O	      4.20693      8.44716      6.21301        -0.006500      0.005288      0.072964
O	      4.17797      6.36429      8.19767         0.629239     -0.040535      0.085605
O	      6.30840      8.41184      8.16154        -0.080028     -0.551632      0.024664
O	      6.31686      6.27270     10.13591        -0.003582      0.016770     -0.013376
O	      8.47191      8.46808     10.11532        -0.015793      0.011844      0.015631
