# total energy = -230.39054716 eV
 
CRYSTAL
PRIMVEC
0.000232 6.235615 6.318847 
6.318347 -0.009358 6.328418 
4.203421 4.154503 0.002656 
PRIMCOORD
36 1
Li	      4.25867      4.13261      0.08951         0.015534     -0.021724     -0.076110
Li	      2.15834      8.22634      6.36794         0.068533     -0.053111      0.040905
Li	      6.23838     10.31165      8.36508        -0.033952     -0.018142     -0.008877
Li	      4.29637      8.35716      8.31384         0.030993     -0.002688      0.018336
Li	      4.19531      4.16426      4.20466         0.009762     -0.036897     -0.033245
Li	      6.27456      4.16840      6.36725         0.006876      0.027174     -0.009749
Li	      6.30461      8.33431      6.51546        -0.030521     -0.006985      0.092848
Li	      4.13355      4.16249      8.36237        -0.031585     -0.006900      0.071407
Li	      6.28471      6.30781      8.37701         0.007684      0.014667      0.038489
Sc	      4.19694      8.34376      4.28636        -0.024695      0.065793      0.042796
Mn	      4.16318      2.18481      6.34318        -0.052657      0.041378     -0.029030
Cr	      6.32131      6.20498      4.21182         0.002952      0.004733     -0.037565
Cr	      2.12208      6.20935      4.27023        -0.010062      0.034769      0.033721
Fe	      4.16670      6.24385     10.43967         0.148549     -0.057506      0.070851
Fe	      6.28099      8.36195     10.41360        -0.051121      0.030130      0.256618
Fe	      6.34659      2.03165      8.28371        -0.005320      0.051776      0.091759
Fe	      8.46729      4.11460      8.31573        -0.031604      0.016639     -0.030723
Fe	      4.17776      6.16812      6.52132         0.084920     -0.027493      0.016731
O	      2.02762      2.11357      2.16895         0.064560     -0.050080     -0.030046
O	      4.13118      4.23379      2.06395         0.044760     -0.049606      0.025502
O	      4.15910      2.01711      4.16243        -0.045789      0.087238      0.009816
O	      6.40196      4.18007      4.19978        -0.144349      0.091677     -0.005840
O	      6.15883      2.13412      6.30081         0.017942     -0.012241     -0.126921
O	      8.40917      4.31935      6.29707        -0.021964      0.009994     -0.069992
O	      2.08934      4.15138      4.11511         0.005659     -0.006901      0.038672
O	      4.21785      6.21035      4.24182        -0.004091      0.020648     -0.038136
O	      4.19569      4.14532      6.35785         0.012431     -0.128121     -0.068857
O	      6.34546      6.25036      6.21016         0.013538     -0.014145      0.012620
O	      6.42329      4.04237      8.49125        -0.040468      0.060639     -0.026945
O	      8.49299      6.17602      8.55995        -0.057725      0.033713     -0.006839
O	      2.20832      6.19553      6.23379        -0.120484      0.017495      0.003812
O	      4.21725      8.15797      6.30380         0.006308      0.091337     -0.035227
O	      4.27199      6.17137      8.48115         0.006802      0.011478     -0.022703
O	      6.29756      8.31155      8.58045         0.056653     -0.026840     -0.257702
O	      6.36715      6.27098     10.58820         0.010383     -0.102474      0.027750
O	      8.37774      8.30223     10.60396         0.091548     -0.089422      0.021871
