# total energy = -218.38586817 eV
 
CRYSTAL
PRIMVEC
0.015085 6.252787 6.264260 
6.214783 0.023061 6.256160 
4.162119 4.182082 -0.003511 
PRIMCOORD
36 1
Li	      2.11180      8.29846      6.30827         0.019378     -0.030352      0.036205
Li	      4.13426      2.13782      2.02695        -0.016207     -0.000892     -0.024937
Li	     10.31747      6.24598      8.33316        -0.025301     -0.036659      0.026088
Li	      4.08952      4.15974      4.16717        -0.049295     -0.048849     -0.003023
Li	      8.30232      6.33821      6.32960        -0.013163      0.029925      0.020440
Li	      8.31275      6.25347     10.38293         0.000473     -0.042876     -0.060634
Li	      2.09838      4.18960      6.25047         0.020676      0.047297     -0.041520
Li	      4.13218      6.25202      6.29497        -0.038334     -0.005283      0.005687
Li	      6.33241      6.29462      8.28557         0.069685      0.059694     -0.031966
Sc	      4.17241      0.04455      4.18758         0.036244      0.041831      0.011275
Mn	      2.02639      0.02214      2.03324        -0.025653      0.061776     -0.165195
Mn	      6.18753      4.17928      6.32368         0.026094      0.023065     -0.006019
Cr	      6.23905      8.33349     10.42441        -0.003824      0.011412      0.013953
Cr	      4.22122      8.21782      4.21608         0.030337     -0.293832      0.134526
Co	      2.10937      2.08218      4.18574        -0.096261      0.166020      0.062984
Cu	      8.31662      8.29054      8.30538         0.019513      0.020983     -0.038616
Ni	      0.02640      0.03255      0.03215        -0.025061      0.062607     -0.024824
Ni	      8.34184      4.27943      8.35295         0.019926     -0.075319      0.026603
O	      8.30499      6.29532      8.34191         0.027737      0.051268     -0.013221
O	      2.07027      2.00540      2.27154        -0.035875     -0.156143     -0.003030
O	      4.23683      4.18561      2.04086         0.110230     -0.021431      0.129335
O	      4.20509      2.08160      4.14831        -0.091172     -0.086412     -0.006473
O	      6.20418      4.11443      4.06208         0.026920     -0.028108     -0.039617
O	      6.24576      2.18703      6.14269        -0.001005      0.106681     -0.038797
O	      8.20346      4.16834      6.31356        -0.069602     -0.010545     -0.129164
O	      2.00096      4.13472      4.11248        -0.005510     -0.070643      0.119539
O	      4.22750      6.40304      4.18727         0.137183      0.198714      0.011776
O	      4.28795      4.18191      6.35770        -0.000964      0.014869     -0.107510
O	      6.22629      6.15886      6.06128        -0.006233     -0.087382     -0.035809
O	      6.21484      4.25539      8.50640         0.013506      0.055903      0.078094
O	      2.06118      6.29296      6.43780         0.117239      0.025604      0.149658
O	      4.17032      8.43563      6.04355        -0.022724     -0.063822     -0.128469
O	      3.99255      6.24021      8.35835        -0.028653      0.032727      0.056481
O	      6.28651      8.46024      8.39727        -0.130047      0.045801     -0.000719
O	      6.22564      6.29848     10.46892         0.009862     -0.000590     -0.101648
O	      8.32341      8.34785     10.34959        -0.000119      0.002959      0.118545
