# total energy = -217.97802032 eV
 
CRYSTAL
PRIMVEC
0.053442 6.302206 6.131996 
6.304580 0.039023 6.147211 
4.230950 4.239994 -0.002114 
PRIMCOORD
36 1
Li	      4.30657     10.47851      6.17101         0.000322     -0.069961     -0.021348
Li	      8.35736      2.24438      6.02053         0.087941     -0.023195      0.052552
Li	      6.22906      4.24898      2.03452        -0.013963     -0.010753     -0.009206
Li	      8.33925      4.15105      4.15291         0.056818      0.062120     -0.066722
Li	      6.57580      8.47085     10.24919        -0.070123     -0.053863     -0.041642
Li	      4.29036      4.28417      4.05088        -0.017868     -0.072916     -0.038305
Li	      6.42196      4.19239      6.08272        -0.038740      0.020451      0.012889
Li	     10.50994      8.49021     10.26338         0.055461      0.047460      0.080130
Li	      4.19779      6.33326      6.20142         0.007613      0.084268      0.092093
Sc	      4.33044      2.10107      6.03396        -0.040472     -0.039460      0.059873
Mn	      6.28102      6.29349      4.09558         0.180382      0.140596      0.028437
Mn	      6.30964      6.36988      8.24627        -0.165352     -0.079785      0.052890
Cr	      2.12656      4.14831      2.00733        -0.055939      0.046212      0.105641
Cr	      2.17101      6.31396      4.14320        -0.083651      0.095724     -0.033317
Co	      4.29461      8.44639      8.19029         0.100427     -0.009752      0.042696
Cu	      0.05712      2.02460      1.98052         0.061880      0.037946     -0.094058
Cu	      4.24863      4.30045      8.21580        -0.032387      0.056210      0.072922
Ni	      6.35261      8.49260      6.16065        -0.121948      0.058949     -0.058592
O	      4.43475      8.44656      6.31288        -0.191050     -0.028115     -0.046354
O	      8.52133      8.34166     10.14764        -0.041499     -0.089645      0.023410
O	      2.18698      2.15250      2.14627         0.059199     -0.094753      0.068140
O	      4.09793      4.07978      2.06522         0.124674     -0.006564     -0.083788
O	      4.00822      2.14525      4.01999         0.021052      0.002454      0.083725
O	      6.29560      4.46240      4.09228         0.008020     -0.010890      0.050301
O	      6.32738      2.16874      6.20960         0.076786      0.004215      0.040281
O	      8.44723      4.28858      6.18468        -0.022474     -0.000543     -0.006241
O	      2.07846      4.17936      4.05656         0.023444     -0.052137     -0.148852
O	      4.30048      6.34248      3.92877         0.009649     -0.040620     -0.063244
O	      4.07546      4.22558      6.27293         0.151481      0.007805     -0.028998
O	      6.35382      6.48134      6.09830         0.011985     -0.100667     -0.082964
O	      6.33843      4.44814      8.12457         0.062304      0.175620      0.028183
O	      8.34163      6.21644      8.21067        -0.110711     -0.116667     -0.005135
O	      2.17105      6.20820      6.06918         0.019367      0.080673     -0.045900
O	      4.44739      6.51580      8.25037        -0.054878     -0.034973     -0.070134
O	      6.32127      8.33427      8.23268        -0.064838      0.004282      0.088069
O	      6.49620      6.36136     10.11453         0.007089      0.010272     -0.037432
