# total energy = -217.10150908 eV
 
CRYSTAL
PRIMVEC
-0.009854 6.317118 6.275419 
6.204263 -0.010867 6.276858 
4.151722 4.228900 -0.023672 
PRIMCOORD
36 1
Li	      2.15279      8.40632      6.29853         0.010989     -0.061159      0.012038
Li	      4.10929      8.41076      8.24964        -0.033424      0.018395     -0.000649
Li	      6.18261      2.17024      8.40079         0.115457     -0.132982      0.097731
Li	      8.17398      4.25897      8.41946         0.097204     -0.026911      0.114380
Li	     10.28689      8.44986     10.41181         0.007314     -0.085111      0.046973
Li	      2.18673      6.27913      4.10275         0.179589     -0.095841      0.060629
Li	      2.05652      4.22717      6.27345        -0.014899      0.091259     -0.036744
Li	      4.09699      6.47054      6.20619        -0.060891      0.088431     -0.152227
Li	      4.18614      4.19342      8.36655        -0.059626      0.049036      0.057809
Sc	      6.29250      8.38149     10.42312         0.033118      0.271961      0.118525
Mn	      2.07857      6.32899      8.33311        -0.207951      0.260241      0.001583
Mn	      8.24966      6.29715      6.31316         0.217862      0.274113     -0.370513
Cr	      4.18707     10.41032      6.28782         0.021812     -0.110738      0.523441
Cr	      1.99932      2.17939      4.15843         0.117140     -0.236051     -0.447286
Co	      6.16746      6.26919      8.32442         0.290335     -0.451555     -0.457494
Cu	      8.30853     10.49275     10.42803         0.048334     -0.037847      0.044066
Cu	      4.07426      4.27186      4.19242        -0.319481      0.315982     -0.173065
Cu	      6.20485      4.18903      6.39657        -0.088534     -0.035488     -0.056033
O	      4.24288      3.97956      6.20271         0.111901     -0.344925      0.175557
O	      6.19120      4.30264      8.31156         0.010188      1.281452      0.424669
O	      4.13636      8.61729      6.23344         0.016019      0.063154      0.026386
O	      2.07936      1.94392      2.17467        -0.005881     -0.137678      0.017158
O	      4.27980      4.22789      1.92821         0.132175     -0.011083     -0.262918
O	      4.06223      1.94242      4.31437         0.159696      0.160701      0.101818
O	      6.01310      4.26082      4.08080         0.304540     -0.049928     -0.060266
O	      6.04002      1.89328      6.27023        -0.110229     -0.011081      0.009652
O	      8.27302      4.30002      6.21319         0.061638      0.057591      0.007000
O	      2.20569      4.11987      4.12125        -0.379417     -0.021741     -0.004753
O	      4.23437      6.34198      4.17517        -0.557459      0.088331      0.018419
O	      6.32195      6.40471      6.16575        -0.035612      0.004206      1.094931
O	      8.19894      6.33957      8.17627        -1.095956     -0.153272      0.383620
O	      2.01591      6.32751      6.44903        -0.116261     -0.023860     -0.292225
O	      4.04640      6.33475      8.44438         0.903304     -0.035764     -0.097825
O	      6.17300      8.53396      8.38645         0.009381     -0.692644     -0.012698
O	      6.35875      6.34625     10.62299         0.172458     -0.060223     -0.885760
O	      8.25779      8.56657     10.49624         0.065165     -0.208973     -0.025930
