# total energy = -219.00131788 eV
 
CRYSTAL
PRIMVEC
0.030809 6.218542 6.323709 
6.249398 0.039787 6.314464 
4.153527 4.126787 0.039709 
PRIMCOORD
36 1
Li	     10.33450      4.15920      6.37324         0.025243      0.001609     -0.000038
Li	      2.13843      2.10869      0.03918         0.067397      0.015499     -0.050264
Li	      4.16999      8.27683      8.32916        -0.003104      0.043885     -0.063940
Li	      4.22836      6.25033     10.46373        -0.039840      0.035653     -0.080028
Li	      6.30560      2.11450      8.26778        -0.040267     -0.047926     -0.018351
Li	      6.29800      6.14621      4.28670         0.019423     -0.047820      0.040020
Li	      6.25992      4.16877      6.42887        -0.018080      0.001277      0.027864
Li	      4.15917      4.29278      8.40196        -0.045477     -0.006872      0.045759
Li	      6.23057      6.17637      8.41035         0.023636     -0.002286      0.027180
Sc	      8.29463      6.32554     10.56710         0.129786      0.031775      0.018476
Mn	      2.12600      6.27296      8.38901        -0.070209     -0.024095      0.205822
Mn	      8.30657      4.10067      8.39256         0.487206      0.168013      0.097620
Cr	      4.19872      4.11431      4.23380         0.039114      0.217273     -0.020912
Cr	      4.17423      8.26817      4.25922        -0.110262     -0.035749     -0.045674
Co	      8.33894      6.20744      6.40193        -0.039088     -0.036610     -0.174352
Ni	      6.22210      2.09124      4.24709         0.125527     -0.089414     -0.035049
Ni	      6.24389      8.24275      6.46033         0.031051     -0.027263      0.002218
Ni	      4.24580      6.23850      6.39502        -0.005763     -0.084090      0.031451
O	      2.09289      2.13183      2.04166        -0.017874     -0.303564     -0.016190
O	      4.14739      4.12252      2.23192         0.111080     -0.000925      0.014224
O	      4.19022      2.14904      4.43524        -0.289050     -0.204803      0.314043
O	      6.16513      4.14674      4.04482         0.040079      0.226740     -0.156976
O	      6.03394      2.10717      6.26475        -0.174446     -0.017599      0.265210
O	      8.30406      4.29717      6.52979         0.024197      0.083456     -0.284088
O	      2.11341      4.12988      4.08674        -0.050246     -0.079290      0.141889
O	      4.16043      6.18154      4.35025        -0.035950      0.051168     -0.179321
O	      4.15622      4.04931      6.26925         0.082851     -0.260627     -0.020143
O	      6.37217      6.23885      6.40967         0.373323     -0.077918      0.026190
O	      6.44800      4.12826      8.52192        -0.448035     -0.000966      0.104251
O	      8.36354      6.05594      8.40318        -0.021523      0.197656     -0.192999
O	      2.11737      6.19980      6.41688        -0.109243      0.140692      0.028621
O	      4.25108      8.24895      6.23037        -0.170225      0.206041     -0.065888
O	      4.01024      6.27561      8.39081        -0.033297      0.006306      0.163188
O	      6.25205      8.49609      8.49450         0.010981      0.051394     -0.111572
O	      6.27652      6.20284     10.51407        -0.065942     -0.169756     -0.013437
O	      8.40328      8.31848     10.55331         0.197026      0.039134     -0.024805
