# total energy = -220.57558316 eV
 
CRYSTAL
PRIMVEC
0.016664 6.252539 6.331639 
6.190999 0.020548 6.327694 
4.143866 4.182658 -0.003037 
PRIMCOORD
36 1
Li	      2.17302      8.20022      6.38842         0.012993      0.011956      0.008024
Li	      2.08893      6.26371      8.31640         0.003876     -0.000397     -0.025346
Li	      4.12150      8.34850      8.37254        -0.004257     -0.013096     -0.019003
Li	      2.10723      4.15259      2.15670        -0.000114     -0.046699      0.053523
Li	      2.01819      2.20127      4.18746         0.000923      0.071244     -0.028234
Li	      4.12952      4.17215      4.23345        -0.005213      0.023963     -0.023288
Li	      2.07216      4.28607      6.24033         0.003331      0.022356     -0.017569
Li	      4.03973      6.28542      6.40152         0.021791      0.002283      0.011153
Li	      4.12772      4.21339      8.35065         0.009276      0.016288      0.017552
Sc	      8.25009     10.40928     10.48710        -0.075846     -0.033713     -0.072859
Mn	      6.21889      8.37997     10.46334         0.070317      0.026873     -0.089293
Mn	      4.11621      2.15563      6.34820        -0.073559      0.028909     -0.040787
Cr	      4.21707      6.19689      2.16937         0.172638     -0.034677      0.160250
Cr	      6.23001      6.26050      8.43077         0.025567     -0.071583      0.007117
Co	      4.25215      8.27774      4.29034         0.006317     -0.139145      0.077488
Co	      2.10473      6.24309      4.24985         0.116842     -0.065166      0.149633
Cu	      6.17334      4.22314      6.33981        -0.009500      0.038663      0.030740
Ni	      4.22162     10.38436      6.38342        -0.044935     -0.063290     -0.024383
O	      4.21544      4.04870      6.34852        -0.082269     -0.037934     -0.029784
O	      1.88306      2.11443      2.15437        -0.189722      0.002646     -0.021146
O	      4.12046      4.35963      2.04871        -0.026044      0.106131      0.155975
O	      4.27826      2.06547      4.19401        -0.018721      0.018065     -0.052401
O	      6.22455      4.00566      4.09161        -0.068116     -0.059588      0.019306
O	      6.13844      2.12559      6.31902        -0.024355      0.032817     -0.008302
O	      8.22650      4.35303      6.30032         0.057237      0.082824      0.021226
O	      1.98418      4.34441      4.22651         0.065212     -0.030976      0.020704
O	      4.02292      6.24187      4.13025         0.040933      0.015403     -0.057588
O	      6.28877      6.22513      6.45405         0.051654      0.041347     -0.004562
O	      6.18561      4.14765      8.70276         0.051542      0.011629     -0.131435
O	      8.32258      6.29728      8.57175        -0.003258     -0.007482     -0.012862
O	      2.05790      6.25204      6.17890         0.129791      0.000200     -0.085164
O	      4.13481      8.40298      6.14034        -0.028065     -0.123850      0.075521
O	      4.26531      6.26161      8.46122         0.013276     -0.030649      0.009893
O	      6.22478      8.24286      8.58951         0.003844      0.013605      0.045735
O	      6.30350      6.38054     10.52069        -0.094218      0.096875     -0.128439
O	      8.19339      8.28523     10.58448        -0.109169      0.094171      0.008604
