# total energy = -219.92830080 eV
 
CRYSTAL
PRIMVEC
-0.018398 6.145507 6.091543 
6.601854 -0.027765 6.102512 
4.386522 4.089604 -0.003964 
PRIMCOORD
36 1
Li	     10.77911      4.14750      6.14044         0.071127      0.036992     -0.004208
Li	      6.45587      4.16378      2.14778        -0.031965     -0.002579     -0.003786
Li	      8.64976      4.04045      4.18958         0.027580      0.017764     -0.088478
Li	      0.18728      1.88951      2.02964         0.140119     -0.034183      0.043482
Li	      2.24883      4.05289      2.02242         0.010141      0.033162      0.018974
Li	      6.51809      6.07868      4.01644         0.015305      0.035407      0.024669
Li	      4.54924      4.14634      4.06512         0.006791     -0.034998     -0.041258
Li	      8.85409      5.92641      6.04051        -0.134400     -0.013958     -0.029330
Li	      8.85987      6.12363     10.07774         0.003312      0.000133     -0.054998
Sc	      2.19581      4.21511      5.97968        -0.081312     -0.063056     -0.071828
Mn	      8.75471      8.19636      8.15234         0.046656      0.021548      0.181837
Mn	      6.56491      6.15893      8.12854         0.032667     -0.076746      0.060168
Cr	      4.27289      2.13684      2.18647        -0.001319      0.002610      0.325887
Cr	      6.61251      4.05149     10.12180         0.019284      0.095972     -0.017084
Co	      2.22980      8.19719      6.11279        -0.100726      0.177743     -0.098091
Co	      4.36818      6.14954      6.06224        -0.478124     -0.003307     -0.642382
Cu	      6.56156      2.00195      4.17308        -0.024965     -0.062625      0.119924
Cu	      6.73453      4.03807      6.06181        -0.000789     -0.019125      0.090456
O	      6.56326      3.93484      4.16667         0.000749      0.081447     -0.102700
O	      6.91703      1.96400      6.11020         0.150707      0.016325      0.141855
O	      2.34900      2.02462      1.93749         0.056464     -0.082188     -0.002603
O	      4.41750      3.92328      2.01814         0.067131     -0.099622      0.046041
O	      4.21294      1.97599      3.97002        -0.067384      0.095501     -0.221787
O	      8.86419      3.93611      6.11027         0.066259     -0.276761      0.032672
O	      2.00689      4.12411      4.04128        -0.047007      0.020599      0.104398
O	      4.39497      6.19089      4.12427         0.159213     -0.076141     -0.702918
O	      4.26466      4.21519      6.19875        -0.102252      0.103196     -0.027547
O	      6.35460      6.15391      6.18018         0.640430      0.119091      0.227859
O	      6.57798      4.22289      8.09866        -0.025104      0.083133      0.049087
O	      8.48041      6.29283      8.02192        -0.009105      0.037841     -0.004766
O	      2.42087      6.24337      6.10088        -0.612323      0.037612      0.241670
O	      4.33331      8.11225      6.10244         0.005130     -0.031563     -0.043340
O	      4.52965      6.15465      8.04363         0.235820      0.003324      0.751414
O	      6.40614      8.10000      8.19140        -0.136095      0.019943     -0.224298
O	      6.59323      6.11905     10.01843         0.012712     -0.049175     -0.017760
O	      8.99252      8.17298     10.08955         0.085273     -0.113316     -0.061229
