# total energy = -221.72254377 eV
 
CRYSTAL
PRIMVEC
-0.017632 6.236230 6.295358 
6.243673 0.001850 6.275854 
4.142194 4.124159 0.021770 
PRIMCOORD
36 1
Li	     10.32048     10.34507     12.54385        -0.043211      0.028472     -0.002197
Li	      2.17001      8.28526      6.29286         0.023622      0.054555      0.046023
Li	      4.08658      8.33947      8.16464        -0.002528     -0.036954     -0.103127
Li	      4.24836      0.01321      4.25893         0.020143     -0.019093      0.056915
Li	      6.19927      2.06629      4.27329         0.026612     -0.063829     -0.001862
Li	      0.08294      2.04050      2.02295         0.054974     -0.063646      0.020819
Li	      2.08560      2.06034      4.12801        -0.054772     -0.013535     -0.001184
Li	      6.10744      8.27640      6.34622         0.030539     -0.079220      0.001160
Li	      4.15473      6.36688      6.29380         0.022179     -0.061837      0.016579
Sc	      2.06045      6.32286      8.29442        -0.007067      0.068817     -0.030383
Mn	      4.13970      4.12386      4.23859         0.128526      0.120383      0.010773
Mn	      4.15119      4.17546      8.37111         0.014349      0.193395     -0.023034
Cr	      4.14970      8.25645      4.30590        -0.014699     -0.033208      0.037476
Cr	      2.04660      6.22119      4.31509         0.006986      0.070878      0.120018
Co	      8.29431      6.20316      6.30853         0.282648     -0.183916     -0.631837
Co	      6.22694      6.23679      8.38983        -0.139633      0.016561      0.116066
Ni	      2.12150      4.06134      2.05318        -0.008820     -0.110839     -0.102294
Ni	      6.25795      4.11622      6.25008         0.057870      0.045652      0.006858
O	      2.08239      2.06702      2.05745        -0.009062     -0.084419      0.034305
O	      4.15486      4.09628      2.28658         0.011350     -0.044797      0.094931
O	      4.09818      2.18724      4.41087        -0.090372      0.044629      0.425169
O	      6.05383      4.15202      4.19970        -0.189085     -0.052130     -0.153844
O	      5.98923      2.09669      6.29823        -0.239092     -0.044040      0.224632
O	      8.27242      4.30858      6.32427         0.124065     -0.100719     -0.058285
O	      2.10418      4.19656      4.13696         0.056479      0.047966      0.082584
O	      4.04412      6.14324      4.24613         0.040403     -0.045285     -0.076070
O	      4.15076      4.02128      6.21728         0.009708      0.192659     -0.034378
O	      6.37776      6.17147      6.46700        -0.070523      0.151128      0.087841
O	      6.16428      4.25989      8.40871        -0.113368      0.049926      0.203497
O	      8.18994      6.26533      8.36883        -0.113166      0.092666     -0.133968
O	      2.02459      6.22731      6.26830         0.002649     -0.017254     -0.103834
O	      4.16110      8.30234      6.20123         0.016921     -0.017242     -0.046013
O	      4.22651      6.13442      8.38121         0.196471     -0.028198      0.029126
O	      6.36160      8.20948      8.42087        -0.004712     -0.098227      0.026548
O	      6.28926      6.13017     10.35535         0.028922      0.121530     -0.103041
O	      8.40342      8.21069     10.50620        -0.055306     -0.100828     -0.035969
