# total energy = -222.01895227 eV
 
CRYSTAL
PRIMVEC
0.025343 6.174559 6.043802 
6.514043 0.002255 6.067757 
4.351698 4.141038 -0.008167 
PRIMCOORD
36 1
Li	      0.18224      6.20420      6.04731         0.093726     -0.068682     -0.044915
Li	      2.16637      8.16319      6.02150         0.147488     -0.079026     -0.005618
Li	      2.13067      6.16294      7.92790         0.093100     -0.023220     -0.046447
Li	      4.23823      4.16161      4.11777        -0.078481      0.053693      0.043423
Li	      8.73403      6.19415      6.07440        -0.041717     -0.016940     -0.006676
Li	      6.57841      4.08703      6.07963         0.041831      0.061913      0.021417
Li	      2.27032      6.12612      4.13698         0.020543      0.032216      0.032272
Li	      2.21599      4.22898      6.06418        -0.128075      0.062779      0.054927
Li	      4.16712      6.16844      6.06943        -0.057538      0.087567     -0.041614
Sc	      6.51238      6.17420      4.19521        -0.126188     -0.018030      0.127740
Mn	      8.70663      4.13943      4.10101         0.232157     -0.115045     -0.105982
Mn	      6.56573      2.00468      7.98456        -0.035513      0.204492      0.092835
Cr	      4.37998      8.27238      7.98211        -0.046165      0.021842     -0.147866
Cr	      4.39116      8.27632      4.08143        -0.138005     -0.021100     -0.050328
Co	      8.73664      4.16924      7.98068         0.071490     -0.164384      0.468894
Co	      4.31688      4.07051      7.90995        -0.043116      0.064508     -0.059540
Co	      6.51460      6.19313      8.04475        -0.026372     -0.024248     -0.069909
Cu	      6.54555      2.07154      4.15582        -0.053619      0.040513      0.082324
O	      2.20124      6.18242      6.03118        -0.035164     -0.030406      0.037123
O	      2.30922      2.12687      2.00513        -0.023657      0.642597     -0.007006
O	      4.32096      4.16533      2.06933        -0.765949     -0.166796     -0.088206
O	      4.26020      1.96211      3.96548        -0.102918     -0.046323      0.064673
O	      6.77766      4.06284      4.01319        -0.120728     -0.031143     -0.031632
O	      6.48086      2.08994      6.12461         0.060492     -0.102549     -0.271688
O	      8.71381      4.13205      5.96396        -0.114057      0.049219      0.405017
O	      2.03892      4.11482      3.97367         0.239632      0.069907     -0.602051
O	      4.40723      6.25522      3.87148         0.115524     -0.102943      0.071922
O	      4.33478      4.14578      6.14732        -0.001557     -0.031295      0.222907
O	      6.52976      6.20163      6.15873         0.046522     -0.049599     -0.012194
O	      6.49946      4.12674      8.12448         0.494296      0.046686     -0.205431
O	      8.47528      6.21178      8.11119         0.037236     -0.527146     -0.081537
O	      4.39550      8.25538      6.02479         0.036177     -0.008362      0.172638
O	      4.53986      6.23392      8.12751         0.035964     -0.038584      0.105298
O	      6.48654      8.11662      8.18798         0.090331      0.021041     -0.053686
O	      6.36663      6.17821     10.01381         0.014304      0.124806     -0.004650
O	      8.88414      8.39333      9.95272         0.068005      0.082038     -0.066434
