# total energy = -102.87395168 eV
 
CRYSTAL
PRIMVEC
4.004906 -0.000191 0.000094 
2.003272 4.494814 -6.451317 
2.002571 4.358288 2.060652 
PRIMCOORD
16 1
Li	      6.00652      4.51716      1.82415         0.001280     -0.005835      0.001274
Li	      2.00106      2.55142     -0.16845         0.001835     -0.003442     -0.001414
Li	      4.00439      4.60601      0.03229         0.000169     -0.008024      0.017967
Li	      4.00489      6.40470     -2.03627         0.001855     -0.021189      0.006517
Ti	      4.00651      4.28358     -4.29553        -0.002998     -0.142192      0.041472
Ti	      6.00659      6.67377     -4.54193         0.002240      0.222400     -0.425739
Ni	      4.00434      2.15359     -2.05842        -0.002841      0.058108      0.040810
Ni	      2.00255      4.33934     -2.03720        -0.005125      0.111622     -0.029005
O	      4.00434      4.38064     -2.37161         0.004359      0.064689     -0.210592
O	      6.00737      6.74838     -2.32016         0.000304      0.189622     -0.050095
O	      4.00393      2.16063      0.09295        -0.001753     -0.010295      0.492851
O	      6.00695      4.51348     -0.07724        -0.006042     -0.136081      0.140302
O	      2.00161      2.32856     -2.13862         0.007365     -0.110986     -0.031419
O	      6.00726      4.57482     -4.29079        -0.003382      0.023803     -0.062393
O	      4.00468      6.38172     -4.40342         0.001582     -0.024671     -0.002682
O	      6.00696      8.53962     -4.24679         0.001153     -0.207528      0.072146
