# total energy = -226.16290414 eV
 
CRYSTAL
PRIMVEC
-0.009851 6.386968 6.190182 
6.258976 0.008630 6.171691 
4.176696 4.249390 0.001927 
PRIMCOORD
36 1
Li	      0.14229      6.34780      6.19152         0.110524      0.043687     -0.087896
Li	      2.12910      8.39036      6.22487         0.019979     -0.136325     -0.073323
Li	      6.16813      4.23310      2.07887         0.066163     -0.084071     -0.078129
Li	      4.17394      2.21612      1.98949        -0.051876     -0.015701     -0.018553
Li	      6.21228      2.20133      4.11791        -0.024773      0.047838      0.088961
Li	      2.10007      2.17324      4.10240        -0.040387      0.025525      0.102434
Li	      4.21887      4.13212      4.08769         0.027547     -0.103199      0.047859
Li	      2.05767      6.36399      4.20980        -0.010149     -0.022524      0.189478
Li	      2.04314      4.29732      6.16520         0.034607      0.075210     -0.057949
Sc	      4.15660      0.11004      4.11314        -0.055999      0.025035      0.054085
Mn	      2.16427      4.18981      2.11336        -0.064177      0.147403     -0.032461
Mn	      8.30456      8.49516      8.28074        -0.017103      0.063184     -0.092226
Cr	      6.21484      4.22168      6.14224        -0.066025      0.189789     -0.108232
Cr	      6.26762      6.42961      8.24905         0.005727     -0.034970     -0.209444
Co	      4.24350      6.29655      2.11645        -0.019862     -0.239143      0.189341
Co	      8.33862      6.37277      6.18244        -0.107290     -0.010636     -0.052252
Co	      0.02105      4.25668      4.11881        -0.021730      0.059421     -0.006005
Co	      3.97169      6.50759      6.09687         1.365386      0.408649     -0.000919
O	      2.05581      2.33495      2.01720         0.245115      0.113669      0.045154
O	      4.01769      4.27011      2.06907        -0.112966     -0.337136      0.057742
O	      4.20215      2.12428      4.26960        -0.044140     -0.006653      0.025626
O	      6.28335      4.23970      4.18874         0.004235     -0.029680     -0.029772
O	      6.10235      2.20994      6.29899        -0.217861      0.218536     -0.484532
O	      8.25059      4.38604      6.25441         0.064547      0.020650      0.102177
O	      1.97423      4.27519      3.96852        -0.085553     -0.026502     -0.080708
O	      4.17977      6.56566      4.10096        -0.297869      0.226971      0.918443
O	      4.21637      4.13708      6.28963        -0.055397      0.028284      0.066556
O	      6.30300      6.27149      6.23617        -0.040284     -0.020159      0.052883
O	      6.22017      4.34137      8.24638         0.183129      0.078159      0.075678
O	      8.29019      6.25657      8.15053        -0.051783     -0.112299     -0.038391
O	      2.19977      6.36026      6.23003        -0.365056      0.125136     -0.027923
O	      4.20992      8.43198      6.01337        -0.276718     -0.701094     -0.155779
O	      4.26702      6.45374      8.19997        -0.248769      0.014412     -0.474735
O	      6.40166      8.38845      8.26979        -0.012218     -0.042980      0.089567
O	      6.25073      6.24567     10.24787         0.035668     -0.047992      0.053661
O	      8.45634      8.54452     10.21010         0.125358      0.059507     -0.050414
