# total energy = -216.46369702 eV
 
CRYSTAL
PRIMVEC
-0.023304 6.296646 6.209323 
6.219056 -0.002477 6.189135 
4.143935 4.181915 0.000376 
PRIMCOORD
36 1
Li	      2.18487      6.29951      8.22317         0.128315      0.020338      0.017063
Li	      4.12218      8.32648      8.25916         0.006994     -0.007162     -0.015508
Li	      8.30665     10.33938     10.27329         0.005675     -0.057571      0.005216
Li	     10.30468      6.31267      8.26721        -0.037871     -0.009274     -0.011831
Li	      4.12517      2.15787      6.23141         0.031218     -0.005670      0.030551
Li	     10.15924      8.36198     10.33882        -0.016804      0.016938     -0.001848
Li	      8.28125      6.45593     10.29583        -0.030818     -0.022408     -0.021296
Li	      4.08629      6.31494      6.22512         0.012403     -0.004370     -0.020914
Li	      8.31103      8.34718      8.37593         0.046543     -0.029377      0.047645
Sc	      6.22092      6.30344     12.37049        -0.097413      0.048688     -0.025159
Mn	      2.07555      2.07417      4.11122         0.038038     -0.020757     -0.052271
Mn	      4.14658      4.19971      4.11119         0.021867      0.013984     -0.069719
Cr	      8.23772      4.22465      8.26328        -0.017948     -0.012141      0.018547
Cr	      6.11656      6.31357      8.30147         0.074897     -0.066304      0.047219
Cu	      6.20263      8.40501      6.25370         0.021990     -0.004246      0.018642
Ni	      2.09190      8.34073      6.19324         0.008983     -0.000497      0.101474
Ni	      6.24905      8.38004     10.31997        -0.148267      0.055978     -0.038174
Ni	      6.18602      4.16860      6.22485         0.006682      0.015605     -0.002185
O	      8.21896      8.38770     10.39133         0.113566     -0.009400     -0.067660
O	      2.06745      2.17404      2.18622         0.003513     -0.058980      0.076272
O	      4.03766      4.22412      2.14720         0.091849     -0.020800      0.036835
O	      4.07625      2.24912      4.10902        -0.077276      0.015784     -0.017476
O	      6.09961      4.27318      4.12636        -0.001820      0.088841     -0.120149
O	      6.25441      2.12813      6.15457        -0.121177     -0.148527      0.139636
O	      8.26089      4.11436      6.29005         0.115338      0.113085     -0.032049
O	      2.19299      4.04426      4.11415        -0.042477     -0.010662      0.041530
O	      4.28979      6.13859      4.10582         0.041132      0.022561      0.016707
O	      4.10936      4.19405      6.00914        -0.012984      0.007425     -0.011880
O	      6.21373      6.30208      6.13370         0.017490     -0.005053     -0.067881
O	      6.24730      4.32785      8.25339        -0.066784      0.006419      0.129070
O	      8.11755      6.17509      8.29062        -0.002964      0.122068     -0.035452
O	      2.05331      6.25341      6.24274         0.030824      0.022903     -0.032752
O	      4.16757      8.41674      6.19131        -0.002666     -0.008640      0.008598
O	      4.31434      6.25451      8.27360        -0.090266      0.020872     -0.040468
O	      6.26745      8.21515      8.25870        -0.042009      0.017400     -0.097173
O	      6.15762      6.34719     10.26813        -0.007775     -0.107048      0.046840
