# total energy = -222.92869436 eV
 
CRYSTAL
PRIMVEC
-0.044973 6.207795 6.177780 
6.403460 -0.036400 6.169437 
4.242039 4.106398 0.002401 
PRIMCOORD
36 1
Li	      4.24842      4.08624      0.19408         0.019700      0.049203      0.102721
Li	      1.98543      0.08593      1.98114        -0.061562     -0.024438      0.044023
Li	      4.15666      2.11197      2.00931        -0.050131     -0.021894      0.098167
Li	      8.46359      4.10063      4.14093        -0.105737     -0.001072     -0.043773
Li	      0.13264      1.96148      2.00543         0.048911      0.029563     -0.001133
Li	      2.24749      4.01726      2.03672         0.088806      0.001697      0.028112
Li	      6.41291      4.09679      6.18559        -0.026699     -0.048156     -0.027358
Li	      6.32740      8.23032      6.17963         0.089661      0.014907      0.024091
Li	      4.21609      6.23333      6.16669         0.009662     -0.047764      0.047617
Sc	      6.30872      2.06822      4.19228        -0.036916      0.174927     -0.088179
Mn	      4.25822      4.14892      8.11703        -0.104654     -0.068961     -0.106387
Mn	      6.34600      6.14786      8.14790         0.092641      0.149141     -0.157887
Cr	      2.19301      2.11375      0.08573        -0.125106     -0.026367      0.223603
Cr	      2.11888      6.19226      4.15590        -0.084110     -0.147474     -0.037519
Fe	      4.23936      4.14503      4.08186         0.092485     -0.058552      0.101168
Co	      2.12787      2.05212      4.08218         0.092933     -0.032550     -0.040082
Cu	      4.22131      8.24943      4.16913         0.161355     -0.039789     -0.041430
Ni	      8.51985      6.05160      6.18998         0.035049      0.008471      0.063935
O	      4.03585      8.27587      6.13406        -0.054697     -0.015317     -0.014498
O	      2.16392      2.04625      2.01208        -0.047432      0.036264     -0.173599
O	      4.24229      4.10187      2.23407        -0.028275      0.022141     -0.348263
O	      4.24878      2.03127      4.15006        -0.022980     -0.057977     -0.097849
O	      6.24260      4.12401      4.09939         0.176948     -0.164236      0.044730
O	      6.43328      2.00074      6.20140         0.175241     -0.016647     -0.026901
O	      8.48787      3.94388      6.17343         0.002834     -0.053614      0.012352
O	      2.25651      4.17567      4.14912        -0.353344      0.094286      0.037674
O	      4.15122      6.23242      4.12076        -0.020153      0.054295      0.028371
O	      4.25277      4.06505      6.09655        -0.012048      0.077380      0.153535
O	      6.43568      6.13045      6.25011        -0.124976      0.041449      0.178864
O	      6.21905      4.21752      8.29520         0.047905     -0.054316     -0.062632
O	      8.36049      6.25534      8.25135        -0.048002     -0.002794      0.068013
O	      2.02797      6.37626      6.10664         0.063018     -0.014965     -0.004101
O	      4.43032      6.05627      8.19526         0.040816      0.109600      0.005868
O	      6.49859      8.11061      8.19463        -0.042189     -0.031780      0.023691
O	      6.47400      6.13069     10.14263         0.001095     -0.002752     -0.035201
O	      8.36997      8.17202     10.32443         0.109950      0.068093      0.020258
