# total energy = -222.24447996 eV
 
CRYSTAL
PRIMVEC
0.022315 6.381931 6.196996 
6.304819 0.016321 6.202756 
4.197179 4.252594 0.017077 
PRIMCOORD
36 1
Li	      6.33130      8.47467     10.37976         0.068757     -0.007939     -0.033907
Li	      6.23219      2.36004      8.30344         0.026798      0.011551      0.045922
Li	      8.27293      4.29847      8.34675         0.036165      0.033680      0.028107
Li	      6.29116      6.45951      4.21525        -0.037119      0.072993     -0.058851
Li	      4.11676      4.29694      4.21503         0.001629      0.003776      0.015499
Li	      6.36633      4.25538     10.18485         0.004548      0.024322      0.071730
Li	      4.35567      6.31192      6.14733         0.043973     -0.055348      0.012727
Li	      4.38658      4.16233      8.20620        -0.059307     -0.007381     -0.003714
Li	      6.34616      6.28327      8.22467        -0.001000      0.007694      0.040031
Sc	      6.27959      4.21244      2.17737         0.007911      0.047236     -0.073718
Mn	      8.37390      2.17886      6.20174        -0.286571      0.059838      0.135867
Mn	      4.22878      8.49709      8.28252        -0.109766      0.032469     -0.194497
Cr	      4.27780      6.40349     10.30484         0.157948     -0.207881      0.062273
Cr	      2.22864      6.33826      4.05050        -0.056590     -0.215476      0.139454
Fe	      6.26653      0.07252      6.18645        -0.041622     -0.176553      0.077608
Co	      8.39738      6.43394      6.25118        -0.085688     -0.348867      0.116145
Cu	      6.24099      4.33823      6.24073         0.018229     -0.025248      0.012687
Cu	      2.13571      4.20016      6.14491         0.383167     -0.322129      0.062773
O	      6.45448      6.36442      6.18081        -0.231217      0.509151     -0.010564
O	      6.31114      4.28845      8.14515        -0.081750      0.030124     -0.204329
O	      2.20743      2.09077      1.97283         0.111925     -0.090661      0.172289
O	      4.21096      4.06138      2.06013         0.008679     -0.126602      0.014349
O	      4.24008      2.02113      4.00095         0.058399      0.028426     -0.032491
O	      6.43622      4.24423      4.18930        -0.130441      0.008409      0.132489
O	      6.28494      2.05625      6.28068         0.383706     -0.006108     -0.042651
O	      8.45309      4.39849      6.15148         0.140041     -0.730301     -0.230423
O	      2.11218      4.37660      4.24968        -0.022291      0.289648     -0.573149
O	      4.03249      6.39056      4.16043        -0.142174      0.000028     -0.004325
O	      4.25921      4.10791      6.21492        -0.065335      0.906958      0.023092
O	      8.36640      6.39795      8.45516         0.138817      0.028897     -0.117276
O	      2.01784      6.40229      6.13820         0.108829      0.041023     -0.055858
O	      4.10619      8.59185      6.30720        -0.129581     -0.057509      0.288574
O	      4.19953      6.52347      8.29548         0.037615      0.099454      0.025185
O	      6.16306      8.51961      8.12555        -0.228470      0.073685      0.398167
O	      6.34261      6.39485     10.42089         0.011468      0.026719     -0.078544
O	      8.42524      8.56119     10.47040        -0.039685      0.041921     -0.160668
