# total energy = -222.62870253 eV
 
CRYSTAL
PRIMVEC
-0.007579 6.283655 6.296850 
6.208274 -0.066287 6.355851 
4.105943 4.195103 -0.011440 
PRIMCOORD
36 1
Li	      2.10295      8.36906      6.35720         0.046613     -0.007498      0.009975
Li	      3.97847      2.21336      2.03295        -0.006030     -0.011134     -0.078301
Li	      2.16895      4.03526      2.18720        -0.028582     -0.032040      0.035081
Li	      2.05521      2.23464      4.11428         0.007201      0.040870      0.006806
Li	      3.93625      4.21872      4.19402        -0.012107      0.046647      0.032974
Li	      4.11592      2.09277      6.32984        -0.080567      0.019273     -0.010339
Li	      2.14873      6.16828      4.33218         0.007180     -0.062687      0.018569
Li	      2.10963      4.21867      6.16525         0.055976     -0.004728     -0.033148
Li	      4.07208      6.23782      6.20071         0.029932     -0.051794     -0.008011
Sc	      2.02130      6.34632      8.27389         0.059460     -0.004515     -0.089267
Mn	      6.18145      2.02848      4.28186        -0.011491      0.080831     -0.131056
Mn	      6.24440      6.26486      8.37615        -0.049846     -0.002294     -0.184905
Cr	      8.24940      4.16533      4.24880        -0.049546      0.035091      0.065278
Cr	      6.16765      4.14459      6.35920         0.069381      0.141783     -0.033253
Fe	      4.24879      8.22446      4.35073        -0.157984      0.259047     -0.238134
Co	      4.13095      4.15324      8.42994         0.062003      0.022741     -0.193449
Ni	      4.07870      4.14975      0.04815        -0.019756      0.088049     -0.255171
Ni	      4.09643      6.20311      2.17506        -0.197994      0.306422     -0.179647
O	      2.01931      2.03918      2.11634        -0.014493     -0.022411     -0.006887
O	      4.09762      4.21040      2.07741        -0.014659     -0.122041      0.123460
O	      4.29006      1.95387      4.19582         0.109694      0.063987     -0.007214
O	      6.22654      3.98489      4.29500         0.058367     -0.077090     -0.040568
O	      6.21361      2.08640      6.18869        -0.058891     -0.048705      0.138130
O	      8.20418      4.15173      6.21132        -0.096085     -0.000407      0.031124
O	      1.99169      4.18063      4.18215         0.202920      0.030887     -0.060883
O	      4.10484      6.35087      4.14819        -0.055857     -0.375968      0.131251
O	      4.20619      4.15183      6.49981        -0.056946     -0.029312      0.179241
O	      6.18861      6.14853      6.51979        -0.003504      0.003166      0.115221
O	      6.09471      4.27620      8.42655        -0.028110     -0.126955      0.015327
O	      8.15640      6.41466      8.43864         0.119716      0.076010      0.043269
O	      2.01308      6.25615      6.33000         0.058024      0.054748      0.057316
O	      4.08551      8.42566      6.20460        -0.052563     -0.156246      0.388314
O	      4.22625      6.15080      8.51148        -0.017826     -0.167476      0.028420
O	      6.28472      8.24125      8.54850         0.118270     -0.017990      0.068366
O	      6.14861      6.32805     10.43412         0.042402      0.053484      0.126614
O	      8.19009      8.42237     10.39821        -0.034302     -0.001744     -0.064504
