# total energy = -225.53454173 eV
 
CRYSTAL
PRIMVEC
0.034995 6.217932 6.217956 
6.336965 0.033342 6.219228 
4.245709 4.166974 0.001449 
PRIMCOORD
36 1
Li	      0.15596      6.17903      6.13254        -0.009231      0.001452     -0.062387
Li	      2.19185      6.17916      8.21460         0.002512     -0.025747      0.037096
Li	      4.18336      2.15269      2.05178        -0.040086     -0.011363      0.042796
Li	      6.29204      2.13501      4.23220        -0.041223     -0.003812     -0.001489
Li	      4.17262      2.14756      6.18190        -0.028191     -0.000993      0.003930
Li	      6.35127      4.18116      6.14500        -0.013931     -0.011061      0.013957
Li	      2.13055      6.22962      4.30784         0.009527     -0.006363     -0.049790
Li	      2.14045      4.20617      6.22177         0.001395      0.061223     -0.012661
Li	      4.14386      6.29521      6.19728         0.001131     -0.018002     -0.004119
Sc	      0.07719      2.00975      2.00616         0.084314     -0.030849      0.045861
Mn	      4.20278      4.17719      8.18249         0.017483     -0.030976      0.068300
Mn	      6.33889      6.30081      8.20505        -0.020926     -0.040303      0.049530
Cr	      8.43478      4.17375      4.16425         0.031674      0.007337      0.014766
Cr	      6.37525      6.27672      4.28529        -0.081003      0.004487     -0.053690
Fe	      2.21359      4.14866      2.04008        -0.091301      0.098120      0.054171
Co	      4.31473      4.11545      4.29081         0.067933     -0.006974     -0.007080
Co	     10.56974      8.34944     10.35830         0.024667     -0.034517     -0.028192
Cu	      2.17253      8.24198      6.18509         0.003165      0.035397      0.008004
O	      2.12759      6.38924      6.23210         0.029155     -0.122981      0.021869
O	      2.13401      2.20020      2.27926        -0.029216     -0.103092      0.067818
O	      4.14925      4.16307      2.21863         0.131231     -0.015442     -0.023843
O	      4.16093      2.02224      4.21204         0.012999      0.011625      0.019226
O	      6.41513      4.27738      4.18123        -0.006556     -0.089903      0.013112
O	      6.55709      2.07282      6.21329         0.008875      0.002380     -0.058000
O	      8.48407      4.01279      6.24495         0.000461      0.040431     -0.094462
O	      1.98611      4.15301      4.12078        -0.063268      0.046114      0.022809
O	      4.34992      6.33017      4.15667         0.007944      0.071255     -0.001530
O	      4.25532      4.16340      6.28839        -0.004620      0.034535      0.127377
O	      6.36633      6.26509      6.31174        -0.003275      0.028135      0.012949
O	      6.33644      4.22128      8.34274        -0.060599     -0.011090      0.004708
O	      8.55333      6.28482      8.23853         0.035323      0.058222     -0.031992
O	      4.08040      8.32068      6.02986         0.001111     -0.000963     -0.018878
O	      4.21700      6.09339      8.35153        -0.065916     -0.030104     -0.034719
O	      6.55854      8.24336      8.30164         0.053170      0.088254     -0.026497
O	      6.25144      6.13221     10.18790         0.015361      0.051244      0.038001
O	      8.63122      8.36683     10.14108         0.019910     -0.045676     -0.156952
