# total energy = -225.30258091 eV
 
CRYSTAL
PRIMVEC
0.023104 6.396723 6.128679 
6.252343 0.028200 6.124395 
4.176311 4.270109 0.010308 
PRIMCOORD
36 1
Li	      6.24309      0.15973      6.12968         0.006344      0.014199      0.010383
Li	      6.33513      8.38365     10.28699        -0.033168     -0.054491     -0.004174
Li	      4.08374      6.28611      2.04140        -0.028674      0.008537      0.009543
Li	      2.19426      4.31013      2.00876        -0.008475      0.015401      0.032866
Li	      4.11603      4.34211      4.09655         0.002262      0.047349     -0.063693
Li	      4.23319      2.21130      6.11502         0.024220     -0.044665     -0.025955
Li	      8.31639      6.47693     10.24033        -0.018501      0.010441      0.013862
Li	      2.31223      4.29696      6.08977        -0.090505      0.014391     -0.050671
Li	      4.14173      6.31825      6.09472        -0.018829      0.056858     -0.032866
Sc	      4.18694      8.52232      4.17173         0.175547     -0.017093     -0.095144
Mn	      2.10927      6.41391      8.12827        -0.152738      0.045528     -0.047495
Mn	      2.08463      2.17988      4.11075        -0.065838      0.154101     -0.005161
Cr	      6.24392      4.21418      6.11255         0.023951      0.030850      0.165753
Cr	      6.30610      6.44228      8.13101         0.007256     -0.028591      0.048738
Fe	      4.19977      2.27809      2.02787         0.160062     -0.129808     -0.093224
Co	      8.27037      2.17551      6.16003        -0.074243     -0.046130      0.026445
Co	      8.32952      8.51710      8.15043        -0.177192     -0.407750      0.198303
Ni	      8.36194      4.28785      4.12646         0.092732     -0.002088      0.080444
O	      2.18259      2.19104      2.10822        -0.040967      0.005958      0.087881
O	      4.31336      4.20811      2.05640         0.036343      0.168431      0.010146
O	      4.05624      2.09434      4.01131        -0.121082      0.040188      0.223807
O	      6.27527      4.45260      4.04909        -0.112031      0.077433     -0.012636
O	      6.36216      2.23692      6.13513        -0.027599     -0.038501      0.026560
O	      8.25307      4.10265      6.13265        -0.049923      0.064734      0.014088
O	      2.09388      4.09686      4.13520         0.005497     -0.148016      0.036951
O	      4.34578      6.44529      4.07405         0.093006     -0.029594      0.018919
O	      4.25090      4.25767      6.24474         0.104110     -0.035291     -0.193939
O	      6.29036      6.26132      6.06046         0.025108      0.031514     -0.175327
O	      6.13621      4.41015      8.11812         1.154556      0.144832      0.113423
O	      8.26134      6.56673      8.18242        -0.043625     -0.181076     -0.148419
O	      2.08212      6.58977      6.23061         0.020173     -0.034466      0.007034
O	      4.00784      8.53318      6.21256        -0.021087      0.030356     -0.130703
O	      4.15724      6.30384      8.17164         0.025819      0.323986     -0.134400
O	      6.28071      8.46057      8.13156        -0.930083     -0.033738      0.011473
O	      6.26261      6.37692     10.11061         0.064638     -0.018549      0.048729
O	      8.34049      8.57453     10.21996        -0.007064     -0.035241      0.028459
