# total energy = -220.70142418 eV
 
CRYSTAL
PRIMVEC
0.028175 6.214485 6.195480 
6.330024 0.010740 6.212637 
4.221739 4.155909 0.005693 
PRIMCOORD
36 1
Li	      6.31783      0.04025      6.22927        -0.021648      0.003711      0.000023
Li	      2.10075      6.18924      8.20031        -0.040930      0.003920      0.002139
Li	      6.25792      2.12501      8.19478        -0.015397      0.047159     -0.015270
Li	      8.49994      6.14361      6.31987         0.069925     -0.068486     -0.045483
Li	      6.37759      4.16058      6.29509         0.007199      0.011390      0.005340
Li	      6.39210      4.24809     10.29155         0.018589      0.069836      0.003957
Li	      2.11360      6.14602      4.13797         0.036739      0.015115      0.025073
Li	      2.09954      4.19437      6.21115        -0.015424      0.031175      0.001337
Li	      6.39861      6.18582      8.21748         0.021312      0.018132     -0.048092
Sc	      6.32378      6.22705      4.13134        -0.024715     -0.005093     -0.000529
Mn	      4.23098      6.23291      6.24971        -0.023190      0.114342     -0.001454
Mn	      4.32260      4.07497      8.26653        -0.031517      0.004823      0.029234
Cr	      6.39984      8.19552     10.32235        -0.016619     -0.098289      0.017601
Cr	      4.22482      4.14807      4.13078         0.013656      0.035568      0.005045
Fe	      2.07421      2.08708      0.10097         0.051752     -0.051913     -0.179628
Cu	      4.31389      8.32617      8.21265         0.002811     -0.059802     -0.034560
Ni	      8.48085     10.36307     10.36465        -0.017352      0.009204     -0.031109
Ni	      8.39436      4.23697      8.25192        -0.098281      0.048603     -0.002583
O	      6.29555      6.36716     10.34290         0.162116      0.018432     -0.025377
O	      1.97089      2.12685      2.04231        -0.127997     -0.091287      0.167128
O	      4.17331      4.08689      2.15438         0.056471      0.059282      0.048568
O	      4.30509      2.08934      4.08383         0.045413      0.051524      0.128210
O	      6.28646      4.07745      4.12693        -0.073766     -0.025223     -0.012189
O	      6.42254      2.08695      6.01545        -0.118717      0.002591      0.019070
O	      8.45783      4.07853      6.20208        -0.001947      0.139863      0.049933
O	      2.22004      4.13498      4.08628         0.014196     -0.014537      0.143010
O	      4.25733      6.13153      4.30354        -0.034265      0.002124      0.003262
O	      4.19704      4.28238      6.27040         0.036167     -0.037627     -0.042173
O	      6.16556      6.26049      6.17446         0.000303     -0.016204      0.022876
O	      6.21531      4.14121      8.31376         0.100635      0.058189     -0.028094
O	      8.47740      6.34460      8.24253         0.017203     -0.009321      0.024442
O	      2.29330      6.31457      6.20956         0.033609     -0.118078      0.012193
O	      4.19456      8.18002      6.25266         0.003882     -0.023161     -0.101776
O	      4.25781      6.18105      8.21118        -0.018602     -0.025719     -0.061295
O	      6.56031      8.32048      8.42811        -0.031434      0.022666     -0.075766
O	      8.39095      8.32248     10.25944         0.019823     -0.122909     -0.003062
