# total energy = -100.58933217 eV
 
CRYSTAL
PRIMVEC
0.000101 2.225231 2.194704 
3.788785 0.000035 0.000109 
0.000089 9.853573 -9.734405 
PRIMCOORD
16 1
Li	      0.00053      0.45683     -0.31792        -0.000378      0.016199     -0.004920
Li	      1.89501      2.68943     -0.34213         0.000001      0.002980     -0.014671
Li	      0.00061      2.12492     -1.99854        -0.000669     -0.013718      0.011415
Li	      0.00073      9.66900     -5.18081         0.000255      0.002287      0.003014
Ti	      1.89521      7.37329     -5.05063        -0.000887      0.053676      0.148244
Ti	      1.89533      9.86149     -7.32414        -0.000748      0.371766     -0.142944
Ni	      1.89515      4.51120     -2.19386        -0.000172      0.061135     -0.054504
Ni	      0.00069      4.81201     -4.72312         0.000895      0.051040     -0.033827
O	      0.00073      7.19654     -5.24252         0.000108      0.057587      0.009416
O	      1.89507      9.30723     -5.28435         0.000131     -0.108275      0.048853
O	      0.00077      5.12180     -2.80712        -0.000271     -0.083444      0.046127
O	      1.89521      7.52413     -3.17378         0.000536      0.084076     -0.299724
O	      0.00059      2.30715      0.03244        -0.000328      0.002677      0.000500
O	      1.89502      2.59618     -2.47707         0.000608     -0.129584      0.124438
O	      0.00067      9.44974     -7.19490        -0.000287      0.021384      0.035549
O	      1.89495      9.42869     -9.21022         0.001205     -0.389785      0.123036
