# total energy = -219.40321215 eV
 
CRYSTAL
PRIMVEC
-0.010511 6.296882 6.346148 
6.192232 0.003690 6.332123 
4.134717 4.195210 -0.004161 
PRIMCOORD
36 1
Li	      8.29361      4.15495      4.31990        -0.033769     -0.026936      0.039030
Li	     10.24995      6.32498      8.53174         0.026329     -0.040349      0.130281
Li	      8.22257      4.29029      8.43745         0.019568      0.024626     -0.017982
Li	      4.11736      4.27530      4.29049         0.052693     -0.000540      0.025580
Li	      8.27466      6.30614      6.37677        -0.012845      0.028948      0.007705
Li	      6.15666      4.18631      6.40898         0.002424     -0.035891     -0.026066
Li	      4.14715      8.33028      4.18640         0.028559     -0.050155     -0.006111
Li	      8.29161      6.30956     10.46632         0.016275      0.008918     -0.042521
Li	      4.14745      6.21538      6.24103         0.032179      0.010061      0.022049
Sc	      4.06212      2.11625      2.12657        -0.096066      0.117320     -0.112788
Mn	      6.18710      2.10679      4.26815         0.251824      0.001729      0.031576
Mn	      6.12125      6.25370      4.31048        -0.074980     -0.008260      0.203973
Cr	      2.07008      0.01235      2.12316        -0.280840     -0.086691      0.023180
Cr	      6.20788      6.22476      8.46512         0.289902     -0.466798     -0.135927
Fe	      2.17416      4.22391      6.16452        -0.134347      0.033969      0.232661
Cu	      6.14635      6.30918     12.62985        -0.009128      0.169594      0.028726
Cu	      8.27341      8.43248     12.57716         0.051311     -0.159750      0.127705
Cu	      4.16686      4.15773      8.43283         0.214929     -0.057423     -0.062324
O	      6.10131      4.28938      8.44613         0.360337      0.304633      0.001387
O	      8.16804      6.36144      8.43788        -0.199992     -0.200509      0.021396
O	      8.09453      8.39970     10.43863        -0.153317     -0.022622      0.161938
O	      2.03646      1.97761      2.34276         0.069606      0.082630     -0.259807
O	      4.21626      4.19010      1.98803         0.142037     -0.028054      0.297777
O	      4.18769      2.11724      4.19370        -0.153742     -0.034094      0.042078
O	      6.18157      4.18793      4.14615         0.088312     -0.154230     -0.024793
O	      6.27876      2.03989      6.17814        -0.064966      0.025167     -0.132611
O	      8.34794      4.06994      6.36058        -0.218452      0.119681      0.009340
O	      2.09972      4.10677      4.29325        -0.069479      0.065612     -0.353402
O	      4.28034      6.27359      4.26357        -0.013590      0.050085     -0.036755
O	      4.05464      4.21478      6.43227        -0.026574      0.003736     -0.051175
O	      6.18417      6.40111      6.34226         0.017462     -0.029456      0.222172
O	      2.01384      6.29760      6.44560         0.121754     -0.050433     -0.051962
O	      4.11223      8.50370      6.35492         0.327387     -0.274493     -0.076111
O	      4.11386      6.29185      8.41337        -0.097448      0.340709      0.019619
O	      6.20433      8.40801      8.52118        -0.470888      0.057389      0.015810
O	      6.17229      6.37121     10.49465        -0.002465      0.281874     -0.273649
