# total energy = -220.79517952 eV
 
CRYSTAL
PRIMVEC
0.035470 6.329441 6.245233 
6.261842 0.042169 6.238787 
4.186758 4.227516 0.015626 
PRIMCOORD
36 1
Li	      4.19983      4.21797      0.09303        -0.001710      0.022919     -0.016577
Li	      6.34698     10.47353      8.30563         0.029318     -0.019593     -0.004500
Li	      4.15204      6.37435     10.32933         0.007720      0.021947     -0.055728
Li	      6.16586      2.33258      4.12668         0.001789      0.047204     -0.014124
Li	      0.06808      2.02973      2.02132         0.022903     -0.069233      0.006141
Li	      4.33172      4.13423      4.14272        -0.028284      0.012388      0.003228
Li	      6.26043      4.20350      6.14496        -0.021214     -0.025000     -0.030743
Li	      6.28793      8.48463      6.39305         0.006768      0.008877     -0.030598
Li	      4.14527      6.39628      6.33721        -0.013570      0.084164     -0.033820
Sc	      2.16665      6.33506      4.32371        -0.008080     -0.027537      0.054642
Mn	      2.13951      4.21094      2.05702        -0.010465     -0.035614     -0.042261
Mn	      4.20797      8.46575      4.22324        -0.006310      0.000695      0.074951
Cr	      4.29340      2.19688      6.20219         0.098780     -0.020813     -0.081393
Cr	      6.26155      6.37869      8.29445        -0.014951      0.002155     -0.030702
Fe	      6.29477      6.18084      4.23395        -0.074820      0.237654     -0.035604
Ni	      8.29584      2.16318      6.25099        -0.138788      0.071052     -0.000589
Ni	      4.24802      8.47232      8.32198         0.041554     -0.061002     -0.019744
Ni	      4.14007      4.35400      8.28212         0.052745     -0.056062      0.039208
O	      2.12474      2.30297      2.08362        -0.120361      0.030503      0.101852
O	      3.99035      4.19266      2.13511        -0.051170      0.110691     -0.015875
O	      4.10931      2.13563      4.24273         0.096630      0.022287      0.088363
O	      6.26111      4.34165      4.10901         0.000818     -0.268224     -0.017049
O	      6.15341      2.12141      6.19893        -0.109640      0.011377     -0.001199
O	      8.32787      4.33697      6.41391         0.046738      0.058233      0.046325
O	      1.98132      4.21363      4.06025         0.008134     -0.044064      0.023146
O	      4.26588      6.50266      4.19149        -0.115486      0.080763      0.041973
O	      4.19341      4.04497      6.29883         0.024472     -0.086481     -0.174175
O	      6.47030      6.33769      6.25873        -0.056897      0.010494      0.065308
O	      6.33538      4.32152      8.43836         0.147444      0.010191      0.053384
O	      8.34698      6.26744      8.29301         0.003531     -0.040054     -0.065565
O	      2.09004      6.39166      6.26231         0.041962     -0.098895      0.004019
O	      4.15274      8.48215      6.12005         0.113225      0.018874     -0.047962
O	      4.31347      6.38401      8.27069        -0.048783     -0.003866      0.045188
O	      6.30012      8.35546      8.37017         0.015970      0.031555      0.003799
O	      6.32839      6.20346     10.31480        -0.011255     -0.030578      0.041563
O	      8.53220      8.47331     10.37829         0.071282     -0.007005      0.025116
