# total energy = -226.71159571 eV
 
CRYSTAL
PRIMVEC
-0.009916 6.412837 6.138661 
6.288176 0.005848 6.123961 
4.218013 4.291003 -0.022594 
PRIMCOORD
36 1
Li	      4.14171      4.38391      0.18423        -0.028980      0.087020     -0.078398
Li	      2.15051      2.12383      0.11822         0.004595     -0.027256     -0.169747
Li	      2.01402      0.14198      1.98414         0.026419     -0.096033     -0.000060
Li	      0.21979      2.20108      1.95370        -0.023965      0.153654      0.004101
Li	      2.14041      4.09771      2.00930        -0.063081      0.105350      0.007586
Li	      2.11807      2.05790      3.95040         0.015714     -0.030757      0.206685
Li	      6.32809      4.29554      6.17020        -0.002368      0.002847      0.028913
Li	      6.29271      8.59188      6.14767        -0.003415     -0.029078     -0.067123
Li	      4.26184      4.24113      8.09980         0.057030      0.028925      0.013324
Sc	      6.33709      2.25731      4.09572        -0.026027      0.118201      0.194041
Mn	      4.21700      8.55247      4.06308        -0.014177     -0.108821      0.212144
Mn	      4.19915      6.36241      6.10080         0.107861      0.065418      0.023790
Cr	      8.37966      4.31242      4.10523         0.055843      0.051962      0.026419
Cr	      6.26270      6.42987      8.14181         0.111638     -0.200414     -0.110310
Fe	      8.43769      6.40649      6.20435        -0.176610      0.102510     -0.164044
Fe	      2.11663      6.31228      4.08218        -0.080448      0.142131     -0.185727
Co	      4.13907      2.16380      1.98364        -0.152584      0.147487     -0.385465
Cu	      4.17484      4.26476      4.01673        -0.009549     -0.087309      0.096390
O	      4.21778      4.06509      2.10514        -0.017077      0.261918      0.031675
O	      2.25880      2.13794      2.01175         0.233249     -0.028840      0.075345
O	      4.19292      2.05492      4.10518         0.054711     -0.026264      0.741825
O	      6.44715      4.25614      4.03042         0.089236      0.035793     -0.068773
O	      6.14845      2.17564      6.16161         0.301632     -0.006895      0.026494
O	      8.40478      4.45027      6.04625         0.035166     -0.205435      0.073978
O	      1.94684      4.40496      4.06374        -0.032740     -0.249550      0.036372
O	      4.15228      6.39147      4.14749         0.098838     -0.007211     -0.072042
O	      4.17848      4.36095      6.01245        -0.023042      0.049776      0.077002
O	      6.21877      6.38494      6.17133        -0.088405      0.020102      0.002386
O	      6.25685      4.41260      8.31096        -0.001300      0.007170     -0.201843
O	      8.26553      6.54059      8.17313        -0.001306      0.029202      0.095875
O	      2.27293      6.41092      6.02544        -0.025408      0.016073      0.236369
O	      4.22274      8.33037      6.07273        -0.040815     -0.173049     -0.668862
O	      4.23925      6.50339      8.08289        -0.063528     -0.199125     -0.028397
O	      6.11567      8.43793      8.17063        -0.204173      0.066817     -0.017438
O	      6.28572      6.48480     10.20055         0.001004      0.029198      0.000928
O	      8.45123      8.66417     10.21844        -0.113938     -0.045516      0.006586
