# total energy = -227.52858583 eV
 
CRYSTAL
PRIMVEC
0.006901 6.227157 6.197534 
6.328074 0.001620 6.202477 
4.227669 4.163886 -0.007632 
PRIMCOORD
36 1
Li	      2.19461      6.25656      8.24498         0.045762     -0.060492      0.026215
Li	      4.20161      8.15833      8.25637        -0.024460     -0.134139      0.030596
Li	      4.25770      6.20475     10.31889         0.007960     -0.016999      0.004386
Li	      8.38037      6.22734      6.24775        -0.049851     -0.007632     -0.060226
Li	      6.40283      4.19560      6.23526         0.047066      0.044595     -0.058073
Li	      6.29241      4.19304     10.28547        -0.013008      0.009049      0.029958
Li	      8.42528      6.24776     10.28771        -0.027441      0.007470      0.055515
Li	      4.27316      6.23216      6.24181         0.052370     -0.035330     -0.037615
Li	      6.29627      6.17792      8.23996        -0.035757      0.036605     -0.008742
Sc	      6.29458      8.29155     10.28771         0.029939     -0.032282      0.015820
Mn	      2.19971      8.25631      6.19380         0.049456     -0.050809     -0.126655
Mn	      6.31408      8.30723      6.22438        -0.023309      0.009195     -0.003099
Cr	      6.34415      6.22455      4.13365         0.022895     -0.003444      0.138523
Cr	      4.28801      4.20318      8.25114        -0.140331      0.322050     -0.036303
Fe	     10.52573     10.37505     12.37272         0.095066     -0.031096     -0.048739
Fe	      4.23671      4.20356      4.13227        -0.054153      0.031228      0.218649
Co	      6.31839      2.11148      8.26771        -0.473732      0.259431     -0.005391
Ni	      8.38185      4.23744      8.25666        -0.054334      0.036070      0.087961
O	      1.97713      2.13477      2.13268         0.489085     -0.065973      0.016470
O	      4.12737      4.32476      2.09579         0.085833      0.127689     -0.104237
O	      4.17933      2.16691      4.06828        -0.057804     -0.001881     -0.021073
O	      6.23686      4.19860      4.16251         0.057313      0.067377     -0.029897
O	      6.40274      2.01957      6.25123         0.331380      0.006521     -0.856602
O	      8.52614      4.08952      6.23354        -0.124023      0.053100     -0.046851
O	      2.17238      4.10524      4.22164        -0.035214      0.023825      0.016277
O	      4.32076      6.19763      4.02451         0.224590     -0.076416      0.973570
O	      4.14888      4.16596      6.23606         0.071491     -0.063418      0.100089
O	      6.33098      6.37055      6.12785         0.061089      0.050067     -0.065103
O	      6.29062      4.06576      8.25123        -0.067768     -0.153117     -0.022941
O	      8.61223      6.34693      8.25212        -0.342101     -0.025960     -0.089481
O	      2.03633      6.15444      6.21618        -0.029019     -0.072625      0.063395
O	      4.25535      8.33773      6.24765        -0.156374     -0.037572      0.067121
O	      4.26801      6.03240      8.26392        -0.026956     -0.105346     -0.005321
O	      6.46029      8.29462      8.18846         0.030369     -0.053962     -0.067891
O	      6.31173      6.27507     10.41199        -0.011220     -0.069496     -0.074575
O	      8.40603      8.28644     10.20032         0.045194      0.013716     -0.075727
