# total energy = -223.59700486 eV
 
CRYSTAL
PRIMVEC
0.034112 6.174496 6.274270 
6.331252 0.029289 6.280061 
4.239719 4.139816 -0.000223 
PRIMCOORD
36 1
Li	      2.17330      8.21865      6.25725         0.105045     -0.041492      0.013126
Li	      4.17155      2.04255      2.11532        -0.000724     -0.046397     -0.001506
Li	      4.24194      6.19801      2.29814         0.055361      0.028993      0.070718
Li	      6.24177      6.26245      4.15300        -0.190458     -0.011835     -0.054926
Li	      4.19628      4.26627      4.16751        -0.017828      0.064858      0.016692
Li	      4.23805      8.12813      4.18798        -0.020790     -0.017278      0.003556
Li	      2.29124      6.19730      4.16499         0.102256      0.025219      0.047096
Li	      4.26113      6.28561      6.11553        -0.065592      0.017444     -0.036072
Li	      6.35432      6.18227      8.38550        -0.047599      0.029967      0.011561
Sc	      6.31625      4.24027      6.24666         0.021416     -0.005516      0.026523
Mn	      4.29371     10.30850      6.28823         0.010291     -0.176465     -0.232441
Mn	      2.13530      4.08116      6.18863        -0.196791      0.122679      0.018497
Cr	      2.10726      0.09119      2.11789         0.084040      0.024219     -0.053158
Cr	      8.51200      8.24933      8.39165        -0.037441     -0.018599      0.176949
Fe	      6.36404      8.20426     10.45605         0.068850     -0.114621     -0.293605
Fe	      2.11532      4.07813      2.24502        -0.030424     -0.106722      0.104605
Cu	      8.48108      6.19536      6.27190        -0.056173      0.084335      0.038908
Ni	      4.26957      6.18117     10.43770         0.066115     -0.061169     -0.062955
O	      4.22547      6.19547      4.21694         0.033046     -0.006688      0.020959
O	      2.15753      2.09583      2.09810         0.023892      0.054062     -0.065532
O	      4.26477      4.16141      1.95291        -0.055078     -0.022908     -0.187017
O	      4.34881      2.03944      4.26848        -0.025464      0.160964      0.124880
O	      6.36607      4.10686      4.14861        -0.075807     -0.024243     -0.051647
O	      6.45672      2.05306      6.17139         0.007549     -0.174719      0.154001
O	      8.51004      4.11893      6.35745         0.351583      0.007270      0.080469
O	      2.16050      4.14864      4.19441         0.047052     -0.077635     -0.118790
O	      4.18689      4.13790      6.36577        -0.113685     -0.056063     -0.074306
O	      6.27918      6.30659      6.26189         0.091270      0.130872     -0.009129
O	      6.33663      4.16540      8.30055         0.075644      0.008851     -0.042749
O	      8.45217      6.16804      8.28364         0.011563      0.023621     -0.171578
O	      2.04257      6.08557      6.34178        -0.235547     -0.155604      0.216528
O	      4.44475      8.38001      6.25770        -0.082107      0.206888      0.075305
O	      4.14581      6.12319      8.39820        -0.136775     -0.058674     -0.151568
O	      6.44995      8.31559      8.33025         0.094877      0.123402      0.112222
O	      6.32099      6.21043     10.60684         0.082525      0.078731      0.329681
O	      8.37843      8.25820     10.36386         0.055908     -0.015747     -0.035296
