# total energy = -224.72103409 eV
 
CRYSTAL
PRIMVEC
0.076688 6.308022 6.185993 
6.456429 0.033870 6.229132 
4.321791 4.251262 0.005354 
PRIMCOORD
36 1
Li	      6.54708     10.42471      8.35072        -0.005733     -0.086793     -0.043917
Li	      4.36053      2.18095      2.18917        -0.066441      0.055285     -0.005848
Li	      4.33612      6.33587      2.13997         0.024259     -0.012488      0.079631
Li	      6.53839      6.32893      4.15787        -0.016077      0.005050      0.001840
Li	      4.42077      4.14388      4.21852         0.014379     -0.011827     -0.017183
Li	      4.30154      2.29286      6.14037        -0.050988      0.078508      0.030084
Li	      6.31348      4.30620      6.13058        -0.037882      0.053365     -0.011176
Li	      2.35006      4.16086      6.26509         0.053044      0.011091     -0.021135
Li	      4.24597      4.24162      8.17812        -0.011209     -0.010719     -0.020865
Sc	      8.56368      2.14430      6.26067        -0.069432     -0.024784      0.048450
Mn	      2.19613      4.23583      2.07653         0.077217     -0.051421     -0.044974
Mn	      0.08469      4.15232      4.10313         0.175777     -0.108703     -0.043447
Cr	      4.43346      6.26941      6.21697        -0.041837      0.000510     -0.071890
Cr	      6.51626      6.40511      8.27276         0.123683     -0.080692     -0.019774
Fe	      4.33817      4.27482      0.05652         0.080769     -0.116657     -0.045281
Fe	      4.17104      0.16972      4.04759         0.126909     -0.228817      0.130178
Cu	      6.32925      2.25441      4.10386         0.014131     -0.002290      0.101494
Cu	      2.27594      6.31516      4.09599         0.080253     -0.013502      0.038754
O	      6.62638      4.22703      4.12125        -0.136655      0.000079      0.018353
O	      6.53945      8.36164      8.38764        -0.022314      0.047808     -0.139758
O	      2.16579      2.32662      2.03673        -0.003461      0.044678      0.019714
O	      4.15298      4.26773      2.00123        -0.085893      0.015340      0.143632
O	      4.29809      2.03225      4.16999        -0.118510      0.244071      0.007162
O	      6.51569      2.01238      6.07938         0.016102      0.094606      0.076708
O	      8.71424      4.24909      6.31728         0.000929     -0.003319     -0.065226
O	      2.05221      4.30248      4.01099         0.054922     -0.022551     -0.043041
O	      4.46941      6.51092      4.20602         0.161087     -0.020737     -0.019364
O	      4.34750      4.34503      6.18660        -0.018202     -0.054824      0.023099
O	      6.39754      6.36335      6.32999         0.024776      0.051145     -0.008838
O	      6.67911      4.30365      8.38965         0.017108      0.007709     -0.023847
O	      8.56381      6.23298      8.35818        -0.114990      0.051412     -0.157219
O	      2.19144      6.32168      6.14928         0.039313      0.019120      0.161358
O	      4.36506      8.45281      6.05143        -0.027413      0.011265      0.033046
O	      4.47639      6.34136      8.25163         0.014010     -0.007686     -0.016620
O	      6.34980      6.15257     10.37242        -0.174765      0.001379     -0.013791
O	      8.93375      8.42681     10.31157        -0.096867      0.065392     -0.080309
