# total energy = -225.40432896 eV
 
CRYSTAL
PRIMVEC
0.035989 6.304752 6.282030 
6.267004 0.041637 6.276398 
4.202546 4.223914 0.003259 
PRIMCOORD
36 1
Li	     10.43540      4.28370      6.33008        -0.010735     -0.002664     -0.006882
Li	      4.24683      8.49126      8.30765         0.016062      0.053400     -0.049395
Li	      6.25240      8.35347     10.47629        -0.009723     -0.055569      0.000948
Li	      2.29585      4.23328      2.04881         0.112336      0.010398     -0.014598
Li	      4.18460      4.22305      4.12842         0.012928      0.005612     -0.019496
Li	      4.19687      2.13119      6.28604         0.013405     -0.020176      0.029438
Li	      6.36312      8.37351      6.32610         0.060139     -0.063928     -0.019143
Li	      4.21547      6.33517      6.32744        -0.030348      0.019469      0.008122
Li	      6.27657      6.42900      8.35921        -0.023883      0.023968      0.022233
Sc	      0.08218      4.23568      4.23093        -0.015676      0.045156      0.057286
Mn	      2.09946      2.14297      0.06003         0.032578      0.015938     -0.024595
Mn	      8.35522      8.44463      8.32953        -0.088661     -0.006358     -0.031637
Cr	      2.23655      2.12161      4.21673         0.146966      0.040007      0.054885
Cr	      2.13311      6.30037      4.20608        -0.049057      0.000651      0.045119
Fe	      6.23510     10.47505      8.34412         0.126015     -0.003676      0.013710
Fe	      6.26020      4.23865      6.28547         0.014865      0.036840     -0.031996
Ni	      4.25701      6.36741     10.46193         0.089296     -0.053045      0.019632
Ni	      4.18932      6.26814      2.08533        -0.039850      0.011100     -0.049308
O	      2.05034      2.04099      2.25795         0.134792      0.080227      0.093905
O	      4.29089      4.23137      2.08613        -0.107575     -0.087653      0.024193
O	      4.06680      2.10891      4.17205        -0.186680      0.090457      0.015408
O	      6.34116      4.36624      4.20186        -0.137439      0.009900     -0.007161
O	      6.39902      2.23411      6.28646        -0.038380     -0.045576     -0.098481
O	      8.30683      4.14988      6.26764         0.005919      0.039711      0.102856
O	      2.12563      4.22218      4.20126         0.031613     -0.067340      0.005642
O	      4.22178      6.35018      4.15873         0.043142     -0.023349      0.120069
O	      4.26095      4.19177      6.43642        -0.098089      0.003041      0.033632
O	      6.27557      6.27329      6.09076        -0.005889      0.060359     -0.076670
O	      6.13134      4.23103      8.33122        -0.053690      0.085952      0.047297
O	      8.39695      6.47101      8.46079        -0.116749      0.032586      0.002215
O	      2.12602      6.47068      6.26138        -0.004632     -0.034842     -0.062529
O	      4.06059      8.42951      6.26950         0.012056      0.021932     -0.029973
O	      4.13161      6.15454      8.42398         0.011543     -0.038300     -0.133730
O	      6.43092      8.50004      8.33331         0.055765     -0.109594      0.020084
O	      6.37161      6.33408     10.45032         0.095979     -0.022523      0.004418
O	      8.39971      8.39092     10.34127         0.001657     -0.052110     -0.065496
