# total energy = -230.82270253 eV
 
CRYSTAL
PRIMVEC
0.021524 6.147980 6.262585 
6.337056 0.002886 6.281556 
4.238837 4.125583 -0.012426 
PRIMCOORD
36 1
Li	      6.37865      6.16404     12.52030        -0.003452     -0.001301      0.002872
Li	      2.18052      6.19786      8.31066         0.012729      0.007329     -0.007926
Li	      4.23462      8.09196      8.33422        -0.020200     -0.035563     -0.002580
Li	      4.31346      6.15091     10.38637         0.057590     -0.046345     -0.063195
Li	      0.03625      2.01528      2.06494         0.015537     -0.012870      0.006603
Li	      6.41916      4.09894      6.25059        -0.011170     -0.003139     -0.035665
Li	      8.40775      6.18554     10.49488        -0.042992      0.027047      0.050185
Li	      4.20908      6.23829      6.34243        -0.028456      0.030078      0.024677
Li	      6.28819      6.17564      8.39108        -0.018783     -0.006739     -0.011901
Sc	      4.28936      4.19463      8.36693         0.023429     -0.033508     -0.020423
Mn	      4.22725      4.18099      4.15452         0.015724      0.017090      0.058637
Mn	      6.34747      4.17439     10.48080        -0.032664      0.031096      0.011065
Cr	      6.34126      8.14370     10.42987        -0.029220      0.023729     -0.113953
Cr	      8.48549      6.11724      6.26089         0.020854     -0.005722     -0.031834
Fe	      8.48798      4.12524      8.31123        -0.057399      0.024083      0.112382
Fe	      6.37212      6.09240      4.12544         0.119303     -0.013674     -0.016194
Fe	      6.26036      8.34995      6.37685         0.040874     -0.126830     -0.065398
Co	      2.07751      2.00569      0.01452        -0.089317     -0.068770     -0.039030
O	      2.12292      2.09213      2.01856        -0.005432     -0.023235     -0.036529
O	      4.12479      4.11834      2.26380         0.073368     -0.001297     -0.029990
O	      4.24573      1.97668      4.26065         0.007445     -0.025266     -0.008849
O	      6.19383      4.10794      4.15910         0.000167     -0.099622     -0.003736
O	      6.36979      2.05594      6.16018        -0.034377     -0.002773      0.001490
O	      8.43939      4.04125      6.35481         0.011879     -0.003896     -0.074844
O	      2.23673      4.08111      4.19568         0.015058      0.054088      0.004384
O	      4.40585      6.31087      4.18849        -0.088441      0.035947      0.013330
O	      4.17002      4.03230      6.21312         0.027491     -0.018646     -0.025878
O	      6.49168      6.25361      6.13253        -0.016947     -0.030857      0.087998
O	      6.40016      4.11112      8.51359         0.037742     -0.004702      0.003116
O	      8.49741      6.12719      8.23484         0.019804      0.031822      0.010044
O	      2.11915      6.17252      6.27297         0.031197      0.211899     -0.005778
O	      4.22061      8.24785      6.15597        -0.017686      0.027539      0.003400
O	      4.26004      6.11212      8.33663        -0.005720      0.013908      0.004204
O	      6.38842      8.21248      8.32745         0.002153     -0.013906      0.147932
O	      6.36827      6.13518     10.44740        -0.009162      0.003046      0.000508
O	      8.36404      8.19523     10.54395        -0.020926      0.039958      0.050875
