# total energy = -228.86663703 eV
 
CRYSTAL
PRIMVEC
0.012609 6.089744 6.290885 
6.487033 0.010255 6.292386 
4.341379 4.077581 -0.009621 
PRIMCOORD
36 1
Li	      6.52273      6.14282     12.52877         0.055251     -0.037101     -0.008740
Li	      6.47448      4.07668      2.12283        -0.017718      0.000196     -0.015003
Li	      4.28566      2.07712      2.14762        -0.018249     -0.013476     -0.024488
Li	      6.41411      2.05677      4.28333         0.035133      0.019794     -0.037307
Li	      0.07369      2.00547      2.09619         0.075586     -0.032849      0.011272
Li	      2.17088      2.00550      4.11798        -0.029860      0.002178     -0.014776
Li	      4.47396      2.01905      6.24136         0.072124      0.040614      0.037085
Li	      2.26898      6.03319      4.20716         0.005954      0.004750      0.001502
Li	      4.34570      6.09320      6.19001        -0.015123     -0.000598      0.002012
Sc	      2.13422      8.02171      6.32720         0.113799     -0.067917      0.059933
Mn	      4.32511      0.10454      4.22358        -0.096061      0.018357     -0.010254
Mn	      4.38581      4.08335      4.22984        -0.025613      0.044111      0.018367
Cr	      4.33962      8.07645      4.18291         0.058925     -0.125645      0.100723
Cr	      6.42681      8.14053      6.24410        -0.006171      0.081577     -0.031667
Fe	      2.31005      4.07909      2.08646        -0.040297      0.111068     -0.003881
Fe	      4.29675      4.03399      8.30795         0.013927      0.008050      0.020427
Fe	      6.48409      6.13375      8.36187        -0.050496      0.081922      0.051009
Cu	      6.52536      4.08989      6.22684        -0.007406      0.037971     -0.031864
O	      2.19780      2.17279      2.04697        -0.040700     -0.160880     -0.010793
O	      4.24899      4.09085      2.30670         0.144422      0.005467     -0.000576
O	      4.38084      2.04387      4.20348         0.037277     -0.074071      0.035107
O	      6.71404      4.10931      4.22610         0.083653      0.010889     -0.002564
O	      6.58283      2.14936      6.28142        -0.051429     -0.074716      0.007988
O	      8.81187      4.10890      6.24153         0.082616      0.039536     -0.077852
O	      2.02220      4.04223      4.18606        -0.027573      0.013714      0.028251
O	      4.31251      6.02343      4.19413         0.012070      0.064745     -0.018879
O	      4.14190      4.05182      6.25379        -0.103037      0.012419     -0.048734
O	      6.40285      6.07760      6.42084        -0.060949      0.034058     -0.094736
O	      6.42289      4.08736      8.42559        -0.038581     -0.052693      0.011578
O	      8.53650      6.11123      8.43076        -0.014888     -0.048202     -0.026935
O	      2.10284      6.03426      6.28117        -0.013003     -0.026166      0.000768
O	      4.39483      8.10662      6.16845        -0.025813      0.014947     -0.055918
O	      4.38624      6.05916      8.55814        -0.029294      0.071558      0.054375
O	      6.62745      8.12128      8.27570        -0.085760      0.010873      0.015817
O	      6.31648      6.04842     10.40825         0.021863      0.010958      0.035372
O	      8.77856      8.25823     10.42939        -0.014580     -0.025438      0.023382
