# total energy = -229.00131291 eV
 
CRYSTAL
PRIMVEC
0.015960 6.424362 6.252008 
6.109577 0.013300 6.254322 
4.089923 4.300396 -0.007578 
PRIMCOORD
36 1
Li	      8.15899      8.57848     12.48634        -0.025936     -0.005139     -0.009239
Li	      6.14795      4.28390      2.12446         0.010203      0.016349      0.004302
Li	      6.16009      8.57838     10.41801         0.024978     -0.046282      0.014384
Li	      2.01834      4.26811      2.21026        -0.055544     -0.040856      0.099515
Li	      2.05855      2.16578      4.18778        -0.010243      0.046474     -0.014719
Li	      6.14804      4.28451      6.20819         0.065672     -0.060486      0.026978
Li	      6.17267      4.40240     10.36432        -0.001780      0.061232     -0.036453
Li	      8.08001      6.37931     10.42144        -0.042046     -0.036961     -0.033931
Li	      6.14813      6.40096      8.42553         0.009343     -0.006665      0.046219
Sc	      0.11015      2.15781      2.18091         0.079519      0.065974      0.022308
Mn	      4.09419      6.46476      6.18280         0.002904      0.055749      0.075607
Mn	      8.15837      8.57011      8.35263         0.087934     -0.011295      0.216495
Cr	      6.13628      6.45688     12.46382        -0.003665      0.005893     -0.059102
Cr	      2.04808      4.29684      6.19294        -0.134022      0.001132     -0.073658
Fe	      4.04323      2.25144      2.13576         0.092144     -0.040595     -0.022125
Fe	      8.07390      4.25861      4.14795         0.129003     -0.024322      0.014535
Fe	      8.13042      6.40364      6.21424        -0.024102     -0.020058      0.014885
Ni	      4.13868      4.29207      4.14955         0.085258     -0.024265      0.081230
O	      2.12496      2.17178      2.05017        -0.113802     -0.024998      0.026059
O	      4.09632      4.27093      2.03461         0.007272      0.107849      0.016838
O	      4.09985      2.13472      4.14162         0.020213     -0.096905      0.000506
O	      6.17339      4.29800      4.18875        -0.083406      0.009213     -0.040436
O	      6.05698      2.03041      6.31137         0.076034      0.035503     -0.013847
O	      8.19147      4.42219      6.20515        -0.016127     -0.094532      0.061990
O	      2.12296      4.29552      4.23177        -0.196946      0.002253     -0.009639
O	      4.11139      6.37228      4.25909        -0.009147      0.126128     -0.077496
O	      4.05386      4.18797      6.34469         0.056307      0.056595     -0.086652
O	      6.09166      6.55820      6.23596        -0.058811      0.028354      0.002854
O	      5.98544      4.22622      8.32441        -0.071633      0.050868     -0.026350
O	      8.15523      6.62754      8.27248        -0.020170      0.063873      0.049900
O	      2.10284      6.33247      6.22140        -0.000124     -0.001778      0.012198
O	      4.13997      8.68102      6.33424        -0.031952     -0.002835     -0.061894
O	      4.09887      6.35264      8.23738         0.004287     -0.131205     -0.041501
O	      6.16159      8.58759      8.23875         0.027604      0.015448     -0.025728
O	      6.00714      6.42871     10.50924         0.079903      0.000179     -0.047603
O	      8.14294      8.67594     10.22765         0.040879     -0.079891     -0.106430
