# total energy = -233.34535545 eV
 
CRYSTAL
PRIMVEC
0.033127 6.384823 6.319211 
6.280343 0.044966 6.308123 
4.204163 4.266755 0.011910 
PRIMCOORD
36 1
Li	      4.23431      2.06850      2.23761         0.003895     -0.058584     -0.084063
Li	      4.24710      6.51918     10.43251         0.022887     -0.044734      0.033641
Li	      6.07456      2.15828      4.17794        -0.009140     -0.039802      0.011784
Li	      8.39155      4.41240      8.39247        -0.006605      0.079133     -0.005027
Li	      4.22845      4.11010      4.19683        -0.054625      0.032883     -0.028813
Li	      4.13139      2.21793      6.21652         0.027137     -0.005262      0.031151
Li	      8.38435      6.45336     10.46583         0.018006     -0.001647      0.030786
Li	      4.23835      6.38763      6.37305         0.013683     -0.017285      0.018374
Li	      6.30919      6.42384      8.49542         0.011760     -0.006282     -0.008883
Sc	     10.39327      4.34535      6.28347        -0.035757      0.028702     -0.053419
Mn	      6.33540      4.33562     10.49463         0.034039      0.064994      0.000598
Mn	      6.36667      8.50151      6.34787         0.006631     -0.028413      0.023463
Cr	      2.16522      8.49490      6.30978         0.023186      0.043961     -0.032072
Cr	      2.19804      2.15850      4.19733         0.011645     -0.021858      0.036931
Fe	      6.34037      4.26947      2.17994        -0.045704     -0.054302      0.074329
Fe	     10.41627      6.41674      8.47936         0.034845      0.070492     -0.077021
Fe	      6.28834      4.34573      6.24962         0.001323     -0.082101      0.005021
Fe	      8.40893      8.54529      8.46585        -0.019880     -0.025199      0.071723
O	      2.05391      2.06087      2.08653         0.029768      0.058331     -0.002225
O	      4.25003      4.39150      2.09863        -0.023150     -0.075771      0.005983
O	      4.14051      2.14232      4.19371        -0.041658     -0.001783     -0.009060
O	      6.26296      4.38502      4.22791        -0.025819     -0.007590     -0.078743
O	      6.38192      2.21194      6.30704         0.032846     -0.039592      0.016666
O	      8.32324      4.17140      6.34927         0.133174     -0.034544     -0.027011
O	      2.09215      4.20449      4.39005        -0.004492      0.006467      0.023926
O	      4.34479      6.60776      4.13041        -0.048963     -0.025357      0.108700
O	      4.22320      4.28427      6.37602        -0.181610     -0.007102     -0.035716
O	      6.31495      6.33374      6.22138        -0.031325      0.078212     -0.035776
O	      6.25111      4.25021      8.29899         0.064985      0.008376      0.049333
O	      8.48423      6.51427      8.44014        -0.131739     -0.048569      0.002748
O	      2.08770      6.45286      6.40984         0.018729      0.079495     -0.058104
O	      4.22280      8.57499      6.39075         0.064031      0.007845      0.034471
O	      4.11574      6.27083      8.45322         0.130317      0.075981     -0.027332
O	      6.37303      8.57609      8.31264        -0.091338     -0.015017     -0.039910
O	      6.33282      6.26773     10.54869         0.039455     -0.012382     -0.010706
O	      8.54015      8.51166     10.57813         0.029463      0.018303      0.034253
