# total energy = -216.33456254 eV
 
CRYSTAL
PRIMVEC
-0.003669 6.306225 6.168788 
6.221834 -0.009290 6.174455 
4.140863 4.200840 0.000790 
PRIMCOORD
36 1
Li	      2.01546      0.10670      2.08758        -0.052453      0.079656     -0.043887
Li	      4.08746      2.11515      2.06545        -0.004132      0.015701     -0.005174
Li	      4.17212      6.26222      2.12319         0.003894     -0.034147     -0.011601
Li	      4.23638      4.26803      4.14113        -0.036449      0.023927     -0.005006
Li	      4.17357      2.16994      6.17400        -0.016867     -0.016531      0.004463
Li	      6.05140      4.23435      6.15278         0.026074      0.039317      0.020185
Li	      4.11401      8.26794      4.11178         0.045679     -0.032465     -0.002689
Li	      2.18078      6.38296      4.08042         0.089521      0.017841      0.029123
Li	      4.19372      6.21904      6.10951         0.003409     -0.054202      0.020264
Sc	      2.12925      4.20865      6.10927        -0.071299     -0.013527     -0.019119
Mn	      0.01345      0.01994      0.01500         0.014420     -0.052230      0.020243
Mn	      6.22404      6.26332      8.22594        -0.013380     -0.017805      0.006534
Cr	      8.24670      4.20720      4.12033        -0.000889      0.006044      0.030930
Cr	      2.06818      4.18614      2.07398         0.032722      0.095466      0.005536
Ni	      2.08802      8.36563      6.16813         0.017206      0.035358      0.015986
Ni	      6.15565      2.14743      4.11622        -0.126550      0.053551     -0.028607
Ni	      6.18366      6.24972      4.08951         0.171223     -0.004653      0.026673
Ni	      4.19484      4.15319      8.22785         0.040446     -0.045668      0.086738
O	      4.28670      6.28268      4.11787        -0.215957      0.005914      0.020386
O	      2.04938      2.22738      2.02155         0.008015     -0.112363     -0.066543
O	      4.05359      4.23600      1.89422         0.075346     -0.020364     -0.037038
O	      4.04503      1.96797      4.11225        -0.004342      0.098098      0.004948
O	      6.26827      4.22034      4.09916        -0.027050      0.048731      0.014174
O	      6.28232      1.94169      6.12153        -0.065824      0.072044      0.118134
O	      8.42881      4.16909      6.17760        -0.076783      0.104232     -0.026635
O	      2.11761      4.07073      4.03949         0.000675      0.001198      0.078275
O	      4.12233      4.19061      6.24682        -0.025645     -0.010818     -0.117741
O	      6.18752      6.31942      6.31165         0.032679      0.038079      0.074761
O	      6.26734      4.35095      8.23582         0.024486     -0.026449      0.009461
O	      8.14849      6.22400      8.27713         0.023107     -0.004628      0.013772
O	      1.92794      6.30792      6.17307         0.070275     -0.142384     -0.036802
O	      4.11043      8.59451      6.15415         0.093095     -0.015872     -0.023026
O	      4.28687      6.23716      8.30965        -0.034175      0.071242     -0.063647
O	      6.25863      8.23005      8.26379        -0.105560     -0.014834     -0.147418
O	      6.12570      6.37732     10.29290         0.029657     -0.092353     -0.003268
O	      8.23827      8.49957     10.29054         0.075428     -0.095108      0.037614
