# total energy = -224.21695975 eV
 
CRYSTAL
PRIMVEC
-0.029236 6.359486 6.263760 
6.189625 -0.028806 6.262252 
4.135295 4.247495 -0.027703 
PRIMCOORD
36 1
Li	      6.17611      8.45182     10.35763        -0.019526      0.001757      0.013221
Li	     10.23011      6.52133      8.45402         0.021723     -0.009961     -0.077424
Li	      8.07591      4.33453      8.54365         0.059114      0.007145     -0.031231
Li	      6.07804      6.41536      4.11506         0.083194      0.008528     -0.004458
Li	      6.17580      4.13977     10.28929        -0.052963      0.055286      0.027186
Li	      8.34667      6.28464     10.18517        -0.062763      0.020058     -0.041453
Li	      4.18799      6.37653      6.06936         0.032130      0.104480      0.014103
Li	      8.36804      8.35615      8.42366        -0.070783     -0.018864      0.007964
Li	      6.29136      6.18368      8.39540        -0.052685     -0.012031     -0.002835
Sc	      8.18981      8.39593     12.47268        -0.071041      0.038009      0.015428
Mn	      4.15709      2.12451      2.16181        -0.002589     -0.061973      0.034327
Mn	      8.21654     10.57887     10.38863        -0.017420      0.044471     -0.027286
Mn	      8.24664      6.35116      6.32430        -0.054275     -0.037836      0.030760
Cr	      6.16219      6.29990     12.48657         0.000508      0.026025     -0.005900
Cr	      2.06313      4.21306      6.22014        -0.076378      0.034499      0.155793
Co	      6.21274      4.22876      2.08970         0.003506     -0.022707      0.041207
Cu	      4.05576      4.47696      4.10477         0.152909     -0.101751      0.071887
Cu	      6.07595      4.32563      6.36398        -0.084441      0.089936     -0.058213
O	      4.09423      6.37390      4.17095         0.018586      0.149828     -0.070904
O	      6.18293      4.22965      8.23529         0.003928     -0.066339      0.226760
O	      2.21220      1.97896      2.05858        -0.054508     -0.030750      0.002281
O	      4.26328      4.09571      1.96659         0.026824     -0.027510      0.092611
O	      4.13283      1.93819      4.30689        -0.009130     -0.068453      0.080556
O	      6.24515      4.21416      4.07743        -0.049121     -0.024579     -0.138040
O	      6.12979      1.93671      6.28917         0.022167     -0.163152     -0.004608
O	      8.28613      4.24909      6.11942         0.067286     -0.119086     -0.050771
O	      2.12291      4.29295      4.26463        -0.003507     -0.002788      0.009040
O	      4.08274      4.00382      6.29083         0.140265      0.086263     -0.239461
O	      6.32871      6.46210      6.25570        -0.068624      0.065061      0.001037
O	      8.25510      6.30484      8.17455         0.018018     -0.007187      0.076291
O	      2.00490      6.30874      6.39147        -0.023047     -0.034896     -0.042799
O	      4.14101      8.53997      6.21821         0.107245      0.001657     -0.083232
O	      4.00333      6.45816      8.50096        -0.034261      0.030687      0.051915
O	      6.07181      8.62218      8.26041         0.023857      0.075116     -0.024475
O	      6.00332      6.33835     10.49995         0.032659     -0.029309      0.008411
O	      8.19465      8.64544     10.45170        -0.006857      0.000366     -0.057689
