# total energy = -224.45277695 eV
 
CRYSTAL
PRIMVEC
0.018867 6.195546 6.266851 
6.285898 0.008271 6.277599 
4.207141 4.154064 -0.010994 
PRIMCOORD
36 1
Li	      6.38574      6.21321     12.45788        -0.031890     -0.038497     -0.001984
Li	      8.34555      8.20750     12.47688        -0.007845      0.034771      0.010116
Li	      2.23177      6.15252      8.41063         0.025763      0.009646      0.066914
Li	      8.27120      4.15888      4.18125        -0.010388      0.036162     -0.003498
Li	      6.27667      6.07444      4.22684         0.046313     -0.012579     -0.000519
Li	      4.39414      4.16309      4.21923         0.016172     -0.005581      0.002023
Li	      6.33005      4.13758      6.03074         0.000441      0.033356     -0.007290
Li	      2.13613      6.21198      4.32154         0.031992      0.007650     -0.062973
Li	      4.08584      6.15925      6.19836         0.042514      0.006430     -0.008500
Sc	      6.26164      6.24417      8.39133        -0.023172     -0.044370     -0.103160
Mn	      2.12345      4.14994      2.10032        -0.031517     -0.037670     -0.185518
Mn	      4.22168      2.07569      6.15517        -0.224981      0.156589      0.027582
Mn	      4.18686      8.27480      4.25096        -0.023539     -0.147763      0.135278
Cr	      4.16536      2.08748      2.11499        -0.004060     -0.047043     -0.045341
Cr	      4.23924      6.17750      2.10360         0.033753     -0.029134      0.013043
Co	      2.13624      4.19961      6.21010        -0.003562     -0.320255     -0.216417
Ni	      6.33112      2.16799      4.24578         0.017188     -0.061822      0.119841
Ni	      8.36523      8.35405      8.37828         0.030900      0.015500     -0.046809
O	      6.31719      4.12701      4.14058         0.036218      0.133790      0.015484
O	      2.09969      2.22649      2.00515         0.006210      0.069452     -0.024283
O	      4.01215      4.15590      2.14184        -0.059306     -0.018076     -0.047764
O	      4.27373      2.06796      4.07173        -0.167480      0.009948     -0.051843
O	      6.17693      2.07315      6.35267         0.088850      0.014355      0.104980
O	      8.33180      4.29939      6.45601         0.010593     -0.059600      0.173488
O	      1.93606      4.13312      4.05742         0.053002     -0.023636      0.221339
O	      4.22374      6.34008      4.08707        -0.000304      0.077472     -0.084878
O	      4.11639      4.06304      6.35335        -0.026441      0.065538     -0.055856
O	      6.45883      6.37209      6.25436         0.061514      0.212631      0.200683
O	      6.34678      4.08388      8.48700         0.058204     -0.002966      0.030945
O	      8.48047      6.15436      8.41965        -0.029711     -0.126820      0.018678
O	      2.10953      6.01012      6.29679        -0.021540     -0.012624     -0.008826
O	      4.33672      8.25418      6.18127         0.065154      0.137592     -0.079480
O	      4.25871      6.26962      8.27391        -0.005077      0.127701      0.057854
O	      6.25278      8.28218      8.41005        -0.033823     -0.087926     -0.275805
O	      6.29990      6.09632     10.43570        -0.024646     -0.055520      0.019274
O	      8.51266      8.29205     10.42067         0.104500     -0.016701      0.093220
