# total energy = -229.22154086 eV
 
CRYSTAL
PRIMVEC
0.020614 6.175901 6.095258 
6.563217 0.002494 6.112066 
4.385684 4.138175 -0.008409 
PRIMCOORD
36 1
Li	      6.62325      6.26176     12.13964         0.064637     -0.079917      0.143577
Li	      8.74965      8.24313     12.15440         0.135290      0.010936      0.078556
Li	      4.57013      6.14155     10.18434         0.030151      0.066636     -0.010017
Li	      6.44489      2.03126      4.06751        -0.198646      0.041570     -0.033287
Li	     10.86466      6.19740      8.07563        -0.071867     -0.052035     -0.011581
Li	      8.80274      6.18509      6.13396        -0.008850     -0.008994     -0.012902
Li	      6.48666      8.29634      6.15353        -0.246300      0.013248      0.020778
Li	      4.37768      6.17706      6.12961         0.004445      0.108221      0.039558
Li	      6.58040      6.21416      8.12837        -0.041684      0.026066     -0.090930
Sc	      6.56077      6.19465      4.14154         0.142902     -0.120683      0.033419
Mn	      2.21941      6.16587      8.03851         0.029216      0.069451     -0.046574
Mn	      4.36376      4.15216      4.10770         0.031065     -0.039219     -0.106129
Mn	      4.41267      4.12323      8.13336        -0.119638      0.184210     -0.196007
Cr	      8.74031      4.18247      8.11244         0.177649     -0.100946     -0.200682
Cr	      6.67888      4.03105      6.10316         0.095399      0.017310      0.203777
Co	      4.43653      8.18924      7.94547        -0.165278      0.134370      1.091764
Co	     10.95744      8.29978     10.20623        -0.087113     -0.061983      0.624374
Co	      8.66251      6.25236     10.25717         0.156944      0.181893      0.193947
O	      2.30837      2.06287      2.01698         0.084485      0.029838     -0.149680
O	      4.23153      4.12460      2.11984        -0.178329      0.305004      0.106308
O	      4.30847      2.21341      3.96179         0.062444     -0.003047     -0.015684
O	      6.55652      4.13162      4.04618        -0.127728     -0.029085     -0.155310
O	      6.56902      2.22214      6.06535         0.023597     -0.140148     -0.069660
O	      8.56912      4.15236      6.15660        -0.000061     -0.018901     -0.036276
O	      2.05002      4.12669      4.05344         0.284078      0.178314     -0.026042
O	      4.41457      6.14911      4.09312         0.002465     -0.033211     -0.079701
O	      4.59561      4.09644      6.11325         0.022416      0.006903     -0.062521
O	      6.59620      5.99928      6.11754         0.019986      0.003694      0.022277
O	      6.72766      4.07789      8.15901        -0.043576     -0.027448     -0.731335
O	      8.78444      6.24632      8.19733        -0.052009     -0.053782      0.006355
O	      2.15852      6.19129      6.15298        -0.007750     -0.013172     -0.026958
O	      4.40081      8.23707      6.11099         0.100845      0.028088     -0.377869
O	      4.37838      6.11299      8.14339        -0.005726     -0.468804      0.008105
O	      6.50437      8.34322      8.11217         0.114656     -0.055411     -0.094543
O	      6.64234      6.02307     10.20139        -0.057521      0.122383     -0.068200
O	      9.04672      8.27771     10.06905        -0.170598     -0.221349      0.029092
