# total energy = -103.32546273 eV
 
CRYSTAL
PRIMVEC
-0.000201 2.102257 2.103277 
6.207708 4.229262 -6.335223 
-4.134682 2.110226 -2.110895 
PRIMCOORD
16 1
Li	     -3.98247      2.16030     -2.16075         0.009347      0.010964     -0.008944
Li	     -2.08020      4.18767     -2.08802        -0.010039      0.024052     -0.024003
Li	     -0.19984      4.12854     -4.13207        -0.026176     -0.000623     -0.000477
Li	      2.02216      4.17896     -2.07798         0.001649     -0.006951      0.007899
Ti	      0.09855      2.13133     -2.13682         0.369240      0.044286     -0.041801
Ti	      4.13993      4.21855     -4.20776        -0.128264     -0.079388      0.089385
Ni	      2.06596      6.31920     -4.22267        -0.032846     -0.029645      0.033334
Ni	     -2.07910      2.17062     -0.07090        -0.056823     -0.083777      0.081865
O	      0.00408      6.44263     -4.34456        -0.089720      0.112856     -0.123805
O	     -0.02174      4.13166     -2.03124        -0.003282     -0.077706      0.078426
O	      2.23214      4.26972     -4.27707         0.202692     -0.091962      0.092876
O	     -0.02361      2.20202     -0.10123         0.107105      0.039939     -0.046633
O	      1.94158      2.11878     -2.12126        -0.340911      0.003481     -0.005083
O	      2.00740      6.29021     -6.29756        -0.123546      0.099707     -0.092416
O	     -1.99828      2.05946     -2.06171         0.019564      0.124581     -0.129753
O	      4.17670      6.25992     -4.16547         0.102012     -0.089813      0.089130
