# total energy = -221.90555101 eV
 
CRYSTAL
PRIMVEC
-0.034057 6.338968 6.266520 
6.239773 0.005737 6.225874 
4.174003 4.213590 -0.010471 
PRIMCOORD
36 1
Li	      8.38656      4.19945      4.23939         0.034751      0.006345     -0.019896
Li	      6.24502      8.35914     10.45915        -0.004919     -0.081725     -0.027415
Li	      6.17202      2.18012      8.28669        -0.037873      0.033694     -0.062649
Li	      8.24929      4.27311      8.37450        -0.000611     -0.001079     -0.009862
Li	      8.31318      6.27969      6.26018         0.007507     -0.088184      0.000857
Li	      6.27069      4.22963      6.23096         0.012492      0.011362     -0.009613
Li	      6.30115      4.27511     10.29920         0.061925      0.004136      0.003669
Li	      8.24706      6.29241     10.33732         0.008932     -0.038452     -0.019375
Li	      2.09942      4.14356      6.14035        -0.019004     -0.019993     -0.002221
Sc	      6.21345      4.21433      2.19520         0.062366     -0.018094     -0.039302
Mn	      8.26135      8.49317     12.36780        -0.016977      0.024666      0.011419
Mn	      4.16228      2.12701      2.10022         0.021094      0.057712      0.260039
Mn	      4.17260      6.29195      6.21255         0.137418     -0.031449     -0.099388
Cr	      6.20166      6.36370     12.38277         0.092132      0.031700     -0.019414
Cr	      8.33728      8.39213      8.37079         0.411108     -0.449427      0.028202
Cu	      6.24390      6.38375      4.21322         0.031172      0.020653     -0.024498
Cu	      6.27148      6.28236      8.39815         0.235337     -0.133128      0.075806
Ni	      4.09858      4.23075      4.18588         0.042606      0.029451      0.027541
O	      2.11953      4.09502      4.18367        -0.191610      0.146113     -0.062115
O	      8.23765      6.42418      8.27108         0.196242      0.376542      0.000711
O	      2.15892      2.08200      1.86733         0.042281      0.029985     -0.044791
O	      4.20281      4.22878      1.96806        -0.058436      0.057665     -0.107788
O	      4.09418      2.14968      4.00921        -0.048608     -0.070785     -0.131744
O	      6.17941      4.37777      4.16356         0.066788     -0.083606      0.106472
O	      6.39578      2.01035      6.19342         0.027371     -0.012932     -0.004773
O	      8.43470      4.06800      6.19763        -0.018299     -0.080485     -0.016695
O	      4.20272      6.30409      4.34186         0.059236      0.098406      0.208542
O	      4.10497      4.39755      6.33617        -0.004916      0.067645      0.099641
O	      6.06829      6.34966      6.36041        -0.268857     -0.043054     -0.066630
O	      6.13232      4.28881      8.32423        -0.376708     -0.133799     -0.032428
O	      2.11664      6.47434      6.24492        -0.015812      0.079036     -0.014290
O	      4.05507      8.40545      6.36402         0.038617     -0.025027     -0.059047
O	      4.16120      6.27066      8.21958        -0.353264     -0.028127     -0.055410
O	      6.20549      8.42878      8.34764        -0.169904      0.319177      0.004192
O	      6.22815      6.31992     10.45229        -0.026776     -0.025028      0.180936
O	      8.29647      8.48688     10.44758         0.023200     -0.029913     -0.078685
