# total energy = -222.38681046 eV
 
CRYSTAL
PRIMVEC
-0.010538 6.242122 6.327311 
6.147970 -0.010279 6.327109 
4.081755 4.144571 0.009762 
PRIMCOORD
36 1
Li	      8.16044      8.37020     12.57206        -0.003612     -0.038886     -0.074105
Li	      2.04588      0.03889      2.07074         0.068556     -0.045911      0.022875
Li	      4.08247      8.23337      8.44735        -0.041279     -0.027963      0.019236
Li	      8.19057      4.10433      4.34038        -0.029342     -0.034945      0.010896
Li	      8.17589      4.21581      8.39323        -0.040159     -0.028054      0.020544
Li	      8.22869      6.02846      6.40089        -0.088210      0.046267      0.026792
Li	      6.20618      4.20400     10.53093         0.009901      0.013968     -0.021325
Li	      8.11547      6.24170     10.49226         0.029241     -0.011784     -0.024685
Li	      6.17201      6.20303      8.48404        -0.009952      0.001257      0.014307
Sc	      8.18786      8.25497      8.44348        -0.209238      0.146412      0.076088
Mn	      6.14147      8.22141     10.54575        -0.019675      0.066660      0.005755
Mn	      2.07330      2.11623      4.18098        -0.018361     -0.144893      0.118636
Mn	      4.03576      6.31851      6.36657        -0.118454      0.223964     -0.244818
Cr	      4.02919      4.12430      0.06439         0.098741     -0.115004     -0.194180
Cr	      4.07635      4.16088      4.16385         0.022602      0.162946     -0.005240
Cu	      6.27400      4.11479      6.40538        -0.111119      0.159589     -0.153340
Cu	      6.06591      8.33605      6.39281         0.040985      0.072193     -0.045457
Cu	      6.15810      2.08332      8.40562        -0.044711      0.022994     -0.000792
O	      8.23659      4.08046      6.31973        -0.016137      0.024885      0.199638
O	      6.16156      4.10243      8.35367         0.265015      0.027138      0.083739
O	      1.98087      2.03170      2.36046         0.018601     -0.044832     -0.213343
O	      4.11290      4.24354      2.12237        -0.002917     -0.042133      0.047225
O	      4.02871      2.17012      4.24109         0.217607     -0.059484      0.030082
O	      6.08755      4.16091      4.36430         0.048985      0.064361      0.046951
O	      6.14704      1.92521      6.12769        -0.034329     -0.067900      0.276766
O	      2.12185      4.00578      4.14466        -0.128540      0.122509     -0.052987
O	      4.20407      6.19883      4.38387        -0.188238     -0.029808     -0.061525
O	      4.10277      4.34010      6.24397        -0.071844     -0.228962     -0.057813
O	      5.99208      6.38229      6.21865         0.207292      0.013866      0.040694
O	      8.24088      6.26060      8.39248         0.021814     -0.297437     -0.018369
O	      2.07649      6.13370      6.30550         0.124782      0.124066     -0.009012
O	      4.03955      8.26119      6.30689         0.035799     -0.011428      0.040256
O	      4.08757      6.22614      8.20583         0.027551      0.060410      0.262699
O	      6.10928      8.28652      8.66789        -0.163710      0.040530     -0.272467
O	      6.11130      6.33254     10.65964        -0.048855     -0.169883     -0.008287
O	      8.02158      8.31487     10.49498         0.151209      0.005294      0.114566
