# total energy = -228.32844953 eV
 
CRYSTAL
PRIMVEC
0.023024 6.140229 6.314982 
6.336301 -0.008288 6.346694 
4.190744 4.080897 0.027954 
PRIMCOORD
36 1
Li	      6.29961      0.03567      6.33628         0.002468      0.018000     -0.007898
Li	      8.47753     10.18909     10.60156         0.010696      0.033116     -0.039311
Li	     10.42993      6.17034      8.43951        -0.060941     -0.025171     -0.018058
Li	      4.18005      4.13466      4.23949        -0.004942      0.004121     -0.013589
Li	      6.31020      4.07194      6.51997        -0.049743     -0.010104      0.036469
Li	      2.12058      6.06596      4.23958        -0.008144     -0.013185      0.085583
Li	      2.20145      4.08537      6.27928        -0.025951     -0.010585     -0.014457
Li	      4.39298      4.05155      8.38601        -0.023554     -0.001895     -0.031443
Li	      6.39139      6.01829      8.49377        -0.034879      0.045609      0.064674
Sc	      6.43364      8.13960     10.57914        -0.065019     -0.042325     -0.030691
Mn	      8.37866      6.14511      6.43880         0.010780      0.096500     -0.084153
V	      4.28816      8.22799      8.37121         0.136168     -0.102188     -0.011292
Cr	      6.29450      6.09688      4.23269         0.131685     -0.069688      0.029670
Cr	      6.34710      4.13183     10.54363         0.196361     -0.003839      0.076201
Cr	      4.22601      6.04227      6.37594         0.324929     -0.086905      0.005972
Co	      2.13657      6.15215      8.40420         0.078879     -0.140594      0.064330
Cu	      8.35749      2.08176      6.36314         0.049692      0.075094      0.106669
Ni	      8.35533      4.14705      8.46295         0.187583     -0.085561      0.082555
O	      2.20568      1.99048      2.11382        -0.063204     -0.027249     -0.077525
O	      4.32201      3.99136      2.09047         0.047976      0.033999     -0.025793
O	      4.17218      2.01738      4.08944        -0.068739      0.022761      0.028574
O	      6.30537      4.10695      4.05560         0.010333      0.059169     -0.129683
O	      6.09579      2.06857      6.30661        -0.166895     -0.011473      0.113186
O	      8.39125      4.17203      6.42966        -0.015360     -0.252016     -0.230494
O	      2.03118      4.02778      4.15772        -0.004200      0.012358      0.106025
O	      4.29502      6.17342      4.37315        -0.061257      0.052918     -0.067458
O	      4.19273      4.01479      6.30126        -0.020897      0.031668      0.063162
O	      6.35478      6.08736      6.23040        -0.000541     -0.011214      0.013283
O	      6.35292      4.06260      8.60194        -0.325272     -0.045953     -0.010469
O	      8.38486      6.14346      8.28005         0.024248      0.186434     -0.006510
O	      2.24242      6.22369      6.46474        -0.247259      0.059869      0.037501
O	      4.32307      8.08445      6.47172         0.054222      0.046051     -0.007639
O	      4.11084      6.18811      8.37478        -0.018387      0.032327     -0.040700
O	      6.21604      8.29247      8.47919         0.022586      0.106613     -0.037300
O	      6.38636      6.11305     10.56236        -0.016910     -0.012222      0.037538
O	      8.49782      8.16882     10.71768        -0.006514      0.035562     -0.066929
