# total energy = -227.91504387 eV
 
CRYSTAL
PRIMVEC
0.019843 6.330320 6.299046 
6.150705 0.028947 6.291137 
4.112956 4.227684 0.006567 
PRIMCOORD
36 1
Li	      6.14432      0.07124      6.25083         0.005273      0.059076     -0.078065
Li	      6.21133     10.47485      8.38876         0.030177     -0.015050     -0.001794
Li	      6.26441      8.39473     10.48767         0.009211     -0.004344     -0.005900
Li	      8.20971      4.28579      8.33731        -0.055081      0.004920      0.005672
Li	      6.19142      4.24114      6.23482         0.005167     -0.041198      0.021612
Li	      8.10718      6.46181     10.45868         0.016512      0.058286     -0.013579
Li	      6.19039      8.46822      6.39580        -0.009837      0.017015     -0.017028
Li	      8.06316      8.37984      8.42459         0.025085      0.001275      0.052626
Li	      6.25465      6.46433      8.41340        -0.039833     -0.001464      0.057653
Sc	     10.22755      6.30319      8.29872        -0.010892      0.035129     -0.012320
Mn	      4.18356      8.48242      8.35076         0.085595      0.002350      0.032362
V	      6.22372      4.34984     10.44426        -0.056378      0.050652     -0.198387
Cr	      8.18035      4.24689      4.21445         0.044725     -0.014381     -0.063488
Cr	      4.11439      4.20390      4.23237        -0.008053     -0.023614     -0.018370
Cr	      4.11369      6.25445      6.34835        -0.091505     -0.086804     -0.038346
Co	      6.15964      6.34926      4.21493        -0.014872     -0.022170     -0.000921
Ni	      8.18726      2.17869      6.28145        -0.028671     -0.046911      0.015026
Ni	      8.18061      6.30653      6.37356        -0.103840      0.075386      0.047582
O	      2.15179      2.14522      2.16571         0.049825     -0.004851      0.176894
O	      4.11832      4.16852      2.21374         0.010067     -0.089007      0.064572
O	      3.97559      2.15224      4.28848        -0.029824     -0.001461     -0.024730
O	      6.14374      4.40664      4.17716         0.012664      0.021061      0.059400
O	      6.14561      2.12240      6.29127         0.041100      0.005107      0.091429
O	      8.18936      4.25383      6.17955         0.004381     -0.044426      0.002151
O	      2.06569      4.08694      4.24164         0.038222     -0.068511     -0.011714
O	      4.20778      6.27314      4.26746         0.025649     -0.041776     -0.013196
O	      4.11794      4.35003      6.24411         0.000919      0.018471      0.000826
O	      6.06215      6.35831      6.14564        -0.088784      0.056073     -0.025483
O	      6.18310      4.15300      8.64492         0.004348      0.000880      0.064949
O	      8.22615      6.35828      8.38289         0.028575     -0.025012      0.096971
O	      2.27192      6.42450      6.26303         0.063057     -0.102555      0.004313
O	      4.12903      8.31229      6.14479         0.138278     -0.037228     -0.020483
O	      4.16558      6.44930      8.34575        -0.016018      0.157815     -0.040854
O	      6.05131      8.47119      8.43274        -0.074274      0.028292     -0.038658
O	      6.10914      6.22277     10.52933         0.014823      0.049649     -0.032926
O	      8.31602      8.59545     10.52240        -0.025792      0.029327     -0.137795
