# total energy = -231.07574970 eV
 
CRYSTAL
PRIMVEC
0.085809 6.260556 6.163458 
6.361910 0.080899 6.167213 
4.276977 4.211332 0.019408 
PRIMCOORD
36 1
Li	      6.43166     10.35485      8.21948        -0.016763     -0.004561     -0.007152
Li	      4.51882      8.37476      8.21990         0.002115     -0.006376     -0.076288
Li	      6.20612      2.09336      4.06971         0.012084     -0.017356     -0.008411
Li	      4.27754      6.23043      2.04711         0.002780     -0.000339      0.002240
Li	      4.27974      4.24760      4.09466        -0.006003      0.057447     -0.010193
Li	      4.32278      2.15671      6.14852         0.041937     -0.003093      0.041927
Li	      2.25539      6.17511      4.17691         0.055046     -0.037831      0.015068
Li	      6.43268      8.45908      6.25777        -0.015053      0.033709     -0.015642
Li	      6.36475      6.42903      8.24316         0.009896      0.009214     -0.045022
Sc	      8.41881      8.38679      8.24876        -0.113135      0.007452     -0.063200
Mn	      8.58507      4.38933      8.21765         0.283544      0.043386      0.108557
V	      2.22913      2.12027      4.06243        -0.115821      0.085633      0.090343
Cr	      2.22745      8.32140      6.20931        -0.125646      0.063193     -0.038706
Cr	      6.37648      4.23062      6.15190        -0.038403      0.087129     -0.002514
Cr	      0.08585      4.19225      4.11709         0.106509      0.043249      0.058673
Co	      4.22490      0.06438      4.09085         0.097299      0.014681     -0.114578
Co	      4.31988      6.31211      6.19120        -0.001847     -0.014466      0.090225
Cu	      0.03888      0.05832      0.03109         0.059118     -0.009538      0.100760
O	      2.14372      2.28089      2.09979         0.007132      0.003615     -0.064253
O	      4.17525      4.23639      1.97567        -0.192270      0.013307      0.040239
O	      4.10157      2.02010      4.13777        -0.121324     -0.071525     -0.054714
O	      6.50563      4.33127      4.13442         0.020017      0.049472      0.057536
O	      6.49182      2.21289      6.12784         0.190162      0.090849     -0.022787
O	      8.39241      4.20339      6.05377        -0.244785     -0.095630     -0.039775
O	      2.10745      4.10659      4.17934        -0.039508     -0.054024     -0.028012
O	      4.44821      6.36747      4.23114         0.169658      0.048157     -0.063203
O	      4.38545      4.33313      6.14445         0.051825     -0.025538      0.069985
O	      6.28843      6.24548      6.05694         0.038355     -0.049471      0.012017
O	      6.53320      4.28871      8.22456        -0.060282      0.015769     -0.029184
O	      8.57762      6.30638      8.24371         0.005198     -0.087179      0.014726
O	      2.37898      6.37099      6.16687         0.067746      0.037626     -0.009514
O	      4.26126      8.29553      6.13094        -0.106286     -0.133377      0.010677
O	      4.32817      6.26481      8.22850         0.002375     -0.037486      0.089518
O	      6.48221      8.39099      8.25687         0.081261      0.003897      0.008946
O	      6.27850      6.27423     10.41476        -0.123718     -0.107707     -0.110610
O	      8.70642      8.55706     10.35245         0.016787      0.047711     -0.007679
