# total energy = -224.83101288 eV
 
CRYSTAL
PRIMVEC
0.020694 6.075466 6.394852 
6.236044 0.023101 6.392165 
4.179909 4.071342 -0.007317 
PRIMCOORD
36 1
Li	      4.15220      4.00130      0.10366         0.015311      0.005104     -0.015617
Li	      2.09602      6.04871      8.45938         0.022844      0.002578      0.005900
Li	      4.29143      8.19017      8.41118         0.049420      0.027956      0.012399
Li	      2.16493      4.03655      2.04181         0.014901      0.016519     -0.031402
Li	      4.20202      4.04873      4.16453        -0.001950      0.021005     -0.096321
Li	      6.22802      4.13513      6.47056        -0.010500      0.010100      0.033035
Li	     10.40643      8.14703     10.63918         0.012702     -0.003541     -0.002716
Li	      6.24095      8.11910      6.53073        -0.027438      0.005250      0.055665
Li	      6.15259      6.07331      8.55600         0.030883     -0.017988      0.059010
Sc	      2.07142      5.95298      4.31576         0.047955     -0.120184     -0.063277
Mn	      6.25405      2.01536      8.47402        -0.085672     -0.039996      0.048707
V	      6.25064      6.09460      4.24175        -0.163572      0.084658     -0.108515
Cr	      2.13112      2.06567      0.04651        -0.036907      0.068715      0.047049
Cr	      6.24292      2.11103      4.22059        -0.022540      0.027903      0.020544
Cr	      4.14145      2.07333      6.39887        -0.067360     -0.044264      0.164580
Cu	      4.18728      6.06465      6.50473         0.068315      0.016837     -0.116291
Ni	      4.25347      6.09707     10.65444        -0.034917     -0.009311      0.062985
Ni	      4.17558      4.10244      8.50485        -0.025210     -0.146389      0.053582
O	      1.93992      2.06130      2.09953         0.031888     -0.032886     -0.011618
O	      4.17461      4.20518      2.08859         0.041020      0.027968     -0.021290
O	      4.17416      2.07970      4.36223         0.014309      0.072842      0.017885
O	      6.28861      4.20419      4.21920        -0.046589     -0.055516      0.032370
O	      6.22533      2.08045      6.43199         0.049407      0.005717     -0.177461
O	      8.33277      4.10841      6.33861        -0.024968     -0.037731      0.069424
O	      2.06798      3.89605      4.18466         0.015254      0.012438     -0.013226
O	      4.24565      6.07194      4.01668         0.005269     -0.001997     -0.058247
O	      4.14101      4.07509      6.44558        -0.033972     -0.038866     -0.099166
O	      6.29014      6.12150      6.19791         0.184264      0.010570     -0.016741
O	      6.09004      3.98027      8.52823         0.135683     -0.009101     -0.006611
O	      8.44194      6.16709      8.45385         0.022677     -0.097005     -0.018859
O	      2.16714      6.12185      6.33801        -0.035543      0.049573      0.058169
O	      4.10706      8.01927      6.43383        -0.030961      0.064634     -0.024737
O	      4.21021      5.98719      8.65139         0.000271      0.207513     -0.067724
O	      6.42082      8.13324      8.67437        -0.188502      0.007346      0.058803
O	      6.30597      6.18821     10.65749         0.124324      0.021982      0.058718
O	      8.26777      8.12149     10.78538        -0.050096     -0.112434      0.090993
