# total energy = -102.08711208 eV
 
CRYSTAL
PRIMVEC
-0.000063 2.084450 2.083975 
8.762765 -4.251792 4.250484 
2.146698 4.186990 -2.102230 
PRIMCOORD
16 1
Li	      0.35025      2.02189      2.14900        -0.006087     -0.020322      0.023259
Li	      2.29311      1.93774      0.14862        -0.010951      0.014720     -0.017081
Li	      2.07785      0.03999      2.04671        -0.029546      0.001737     -0.002436
Li	      8.79099      2.00096      2.16966         0.019661     -0.011721      0.011118
Ti	      6.48415     -0.03478      2.12088        -0.111437     -0.012061      0.012295
Ti	      8.93771     -0.09104      4.26164         0.723257     -0.109700      0.109532
Ni	      4.11529      2.16601      2.00460         0.051841     -0.067660      0.072046
Ni	      6.39462      2.08180      0.00522         0.053608     -0.010213      0.011018
O	      6.59738      1.97912      2.19133         0.025025     -0.142812      0.139537
O	      6.52189      0.05223      4.11863         0.043512      0.083575     -0.082667
O	      8.51974     -0.12790      2.21449        -0.080006     -0.016680      0.017216
O	      8.63727     -2.00481      4.09125         0.016086      0.156143     -0.155453
O	      1.93641      4.25765     -0.08566        -0.727633     -0.023711      0.020535
O	      2.19399      2.06299      2.10779        -0.153985     -0.009198      0.006934
O	      4.44712      2.02640      0.05981        -0.083161      0.117130     -0.115852
O	      4.57274     -0.07495      2.16114         0.269816      0.050772     -0.050003
