# total energy = -224.32955721 eV
 
CRYSTAL
PRIMVEC
0.007099 6.142511 6.417068 
6.344275 0.018523 6.406165 
4.236416 4.094632 0.005152 
PRIMCOORD
36 1
Li	      8.28938      2.11222      6.47851        -0.081552      0.014045     -0.030599
Li	      4.14466      2.09410      2.13584         0.002636     -0.011736      0.020818
Li	      6.30910      2.12800      4.40367        -0.023383      0.047580      0.003020
Li	      6.40304      2.10849      8.42777        -0.064679     -0.037392     -0.057785
Li	      2.12342      2.06628      4.23471        -0.024526     -0.054969      0.027973
Li	      4.20801      4.07122      4.27503         0.024300      0.010427      0.030523
Li	      4.30062      2.15143      6.32825        -0.019619      0.015795     -0.109163
Li	      6.38284      3.95051      6.44258         0.015247      0.034504     -0.062460
Li	      0.05235      4.06413      4.25501         0.012372     -0.025028      0.051371
Sc	     10.49494      4.15576      6.43350        -0.063415      0.047948     -0.049380
Mn	      6.25680      4.15575      2.21788         0.115312     -0.258705     -0.207293
V	      2.22572      6.19579      4.26957         0.017444     -0.021814      0.111923
Cr	      4.20432      0.14452      4.24641        -0.132384      0.297317      0.120142
Cr	      4.27865      6.16654      6.41897         0.012702     -0.000985     -0.007017
Cr	      6.38496      6.14542      8.57673         0.081665      0.198914     -0.017668
Cu	      2.10317      3.98205      2.19778         0.051179     -0.097700     -0.046721
Cu	      6.38489      8.18456      6.43602         0.030785     -0.002396     -0.014754
Ni	      4.32436      4.05175      8.50405        -0.143861     -0.034467     -0.133280
O	      2.09636      4.30044      4.42751         0.022566     -0.024040     -0.087787
O	      2.08683      1.96947      2.11936        -0.036234      0.543281      0.120068
O	      4.13468      4.06815      2.11350        -0.511199     -0.032236     -0.069284
O	      4.21154      1.92288      4.22928         0.005751     -0.224101     -0.057050
O	      6.49040      4.11249      4.10497         0.147951      0.020865      0.250388
O	      6.29354      2.01553      6.39183         0.023364     -0.043751      0.037826
O	      8.45628      4.02797      6.09141        -0.016741     -0.044227     -0.157958
O	      4.12074      6.14797      4.44629         0.012667      0.026220      0.000853
O	      4.17137      4.16314      6.46734         0.116442     -0.075722     -0.105297
O	      6.27583      6.20974      6.54574         0.060909     -0.199444      0.002155
O	      6.42654      4.17532      8.53968         0.447175     -0.084220      0.007672
O	      8.40358      6.08327      8.69612        -0.019823     -0.260562      0.102089
O	      2.18225      6.15444      6.44431        -0.007821      0.104834     -0.024875
O	      4.36619      8.14091      6.44504        -0.082390      0.092920      0.014132
O	      4.35809      6.10595      8.62248         0.059147      0.126302      0.022966
O	      6.45923      8.25729      8.46185        -0.063641     -0.096185      0.149271
O	      6.32587      6.17663     10.61852        -0.004414     -0.017337      0.021514
O	      8.47375      8.07244     10.60448         0.036070      0.066067      0.143669
