# total energy = -224.16500265 eV
 
CRYSTAL
PRIMVEC
-0.009201 6.470900 6.228876 
6.124524 0.006417 6.215688 
4.085761 4.308348 -0.000610 
PRIMCOORD
36 1
Li	      4.10608      4.39084      0.12212         0.036684      0.092789     -0.010509
Li	      5.96391      4.41272      2.09723         0.145438     -0.007532     -0.033892
Li	      4.07052      2.28949      2.06480         0.021838     -0.037875      0.017722
Li	      4.12615      6.39197      2.13687         0.009483     -0.070807      0.010681
Li	      6.13873      6.32338      4.02962         0.031972     -0.099357     -0.007758
Li	      4.15820      4.32932      4.05213         0.000928     -0.058016      0.028000
Li	      6.15167      4.22630      6.28340        -0.025590      0.020733     -0.026431
Li	      4.18883      4.24661      8.29437        -0.134449      0.049907     -0.044487
Li	      6.13602      6.40169      8.36166        -0.128273      0.066719     -0.035972
Sc	      2.08361      4.24963      2.18372         0.174755     -0.125028     -0.117775
Mn	      8.16043      6.49922     10.33261        -0.145660      0.102355      0.106355
V	      4.21979      6.27497      6.25412        -0.043357     -0.053690      0.605614
Cr	      8.16933      2.20892      6.25070         0.006365      0.058283      0.021640
Cr	      6.10325      8.73467     10.21780        -0.377364      0.170102     -0.392915
Cr	      8.18370      6.42085      6.24925        -0.104539      0.063741     -0.241822
Cu	      4.08504      6.51742     10.31666        -0.006851      0.101898     -0.150861
Cu	      6.11288      4.29489     10.33256        -0.153746      0.036600     -0.189623
Cu	      6.06008      8.65392      6.31945         0.278562     -0.028537      0.376378
O	      4.03323      6.48232      7.97762        -0.005291     -0.049403     -0.296853
O	      6.07996      8.62422      8.34996         0.080942     -0.029098      0.136729
O	      2.03766      2.17809      1.98624        -0.054594      0.059275      0.023264
O	      4.06937      4.30262      2.09065        -0.037276      0.063125      0.033806
O	      4.13151      2.05498      4.23989         0.083081      0.192928      0.156370
O	      6.18531      4.13821      4.10549         0.011896     -0.079098      0.021207
O	      6.09117      2.23324      6.04724         0.069268     -0.013615      0.097341
O	      8.16421      4.37657      6.30939         0.001758     -0.012489      0.142068
O	      1.95972      4.32911      4.31057        -0.097943      0.006776     -0.083076
O	      3.96076      6.33042      4.32070         0.066004     -0.007722     -0.109393
O	      3.98061      4.36868      6.25050         0.053186     -0.156645     -0.065121
O	      6.02368      6.32470      6.15255         0.105193     -0.092314      0.016433
O	      6.11164      4.35437      8.42298        -0.010299     -0.023143      0.010461
O	      8.17189      6.45717      8.30626         0.006275     -0.032217      0.106390
O	      2.12527      6.68901      6.08041        -0.088284      0.058064     -0.153315
O	      4.07054      8.43264      6.11753        -0.068882      0.056365     -0.099000
O	      6.19796      6.77892     10.38015         0.220829      0.027294      0.039414
O	      8.14464      8.81152     10.41423         0.077938     -0.250369      0.108927
