# total energy = -231.95361575 eV
 
CRYSTAL
PRIMVEC
0.025490 6.216507 6.213079 
6.371820 0.015460 6.222835 
4.244959 4.148037 0.013118 
PRIMCOORD
36 1
Li	      8.45754      2.17636      6.25273        -0.024325      0.019058      0.050345
Li	      8.38029      4.22632      4.23130        -0.081741      0.038068      0.012244
Li	      6.37274      2.19583      8.28178        -0.000895     -0.014422      0.003490
Li	      8.35804      4.16355      8.27798        -0.025574     -0.017542      0.016710
Li	      6.43685      6.18378      4.29413         0.046032     -0.028325     -0.116795
Li	      8.32063      6.20159      6.21269        -0.010471      0.006774      0.001393
Li	      6.38235      8.07370      6.20768         0.006031     -0.025571      0.006946
Li	      4.46512      6.23323      6.18458         0.046979     -0.012548     -0.003841
Li	      6.48678      6.16425      8.13206         0.098092     -0.002662      0.021585
Sc	     10.42760      4.22849      6.27160        -0.094576      0.058422      0.048691
Mn	      4.32069      4.12796      8.21673         0.061044     -0.117173     -0.046086
V	      2.19160      6.26101      8.13953        -0.093501      0.162437      0.000587
Cr	      4.29680      8.22798      8.25917        -0.077134      0.126306      0.055395
Cr	      6.37910      2.09388      4.16435        -0.008821     -0.044280      0.072240
Cr	      0.05996      4.11356      4.15084         0.027635     -0.005212     -0.013551
Fe	      4.17863      4.19990      4.25322        -0.009495     -0.028718     -0.113346
Co	      8.52685      6.24808     10.36664         0.022389     -0.042850     -0.075458
Ni	      6.44432      4.20802      6.26003        -0.019624     -0.039924      0.026403
O	      2.27688      1.94393      2.12214         0.094656     -0.174722     -0.035046
O	      4.35279      4.07333      2.12979         0.073485     -0.056825     -0.020117
O	      4.36939      2.13150      4.04099         0.060805     -0.033409      0.001769
O	      6.28179      4.08516      4.02840         0.034797     -0.042654     -0.100740
O	      6.39877      2.12639      6.14389         0.030314     -0.167103     -0.060845
O	      8.47613      4.17626      6.23399         0.203288     -0.035166     -0.013986
O	      2.12990      4.28437      4.12194        -0.048834      0.092557      0.039914
O	      4.09638      6.23015      4.15579        -0.076103      0.062923      0.044288
O	      4.29370      4.13036      6.17705        -0.102380     -0.016605      0.183063
O	      6.38724      6.17503      6.20310        -0.015619      0.159481     -0.034561
O	      6.38324      4.16575      8.40447         0.052299      0.025317      0.117108
O	      8.52403      6.38101      8.46084         0.023679      0.069795      0.034425
O	      2.09245      6.21765      6.32401        -0.002964     -0.003529      0.004618
O	      4.27073      8.32229      6.21535        -0.030186      0.016032      0.014249
O	      4.13753      6.16122      8.32180        -0.113300      0.031307     -0.056401
O	      6.35340      8.35667      8.35720        -0.093588      0.040110     -0.040917
O	      6.55264      6.23132     10.38923         0.061950      0.014732      0.038257
O	      8.53862      8.20865     10.33473        -0.014346     -0.014078     -0.062030
