# total energy = -229.81527761 eV
 
CRYSTAL
PRIMVEC
-0.022933 6.221335 6.351677 
6.288714 0.007611 6.320996 
4.206933 4.141528 -0.009240 
PRIMCOORD
36 1
Li	      2.14265      8.29997      6.32064         0.018954     -0.006331      0.035202
Li	      4.24846      6.24837     10.59619         0.016078      0.029577     -0.001759
Li	     10.29964      6.28154      8.64277         0.043357     -0.006672     -0.015285
Li	      8.30150      4.31188      8.56562        -0.015176     -0.103141     -0.082394
Li	      4.04777      4.18206      4.26021         0.000891     -0.056891      0.020987
Li	      6.39561      4.13963     10.40876        -0.021161     -0.027285      0.019262
Li	      8.41551      6.06378     10.33933         0.003691     -0.008953      0.062138
Li	      2.09952      4.12625      6.18515        -0.029463      0.002260     -0.024466
Li	      4.28429      4.04462      8.43346        -0.002326      0.057506     -0.032065
Sc	      6.36263      4.10918      6.45220        -0.046084      0.025144      0.139922
Mn	      6.30546      4.13425      2.11800        -0.096919      0.149625     -0.113754
V	      6.48023      8.27035     10.56426        -0.024340      0.026701     -0.004698
Cr	     10.46659     10.34377     12.63715        -0.008650     -0.123810      0.130023
Cr	      4.17034      2.08372      2.13444        -0.062308      0.014313     -0.043542
Cr	      2.06862      2.14648      4.23676        -0.060580      0.136705     -0.023574
Fe	      4.09555      6.18555      6.23185        -0.036146      0.062388      0.033663
Cu	      8.39109      6.27771      6.39113         0.028385      0.057495     -0.020381
Ni	      6.31465      6.18885      8.47175        -0.045869      0.023693     -0.032800
O	      8.30245      6.25468      8.34699         0.097746      0.022073      0.102402
O	      2.16253      1.91823      2.22096         0.062920     -0.047170      0.052985
O	      4.36177      4.10153      2.00849         0.044906     -0.062078     -0.069411
O	      4.18780      2.09432      4.18273         0.004241     -0.024145     -0.080241
O	      6.31102      4.11424      4.10753         0.033173     -0.130805     -0.095492
O	      6.40797      2.02003      6.17514         0.159459     -0.075036     -0.171063
O	      8.47992      4.23010      6.32146         0.034329     -0.109530     -0.024282
O	      2.09190      4.06485      4.19491         0.021171     -0.066848      0.009830
O	      4.23879      6.23893      4.30331         0.025741     -0.040656     -0.061398
O	      4.23349      4.17722      6.33489         0.027365      0.044542      0.011468
O	      6.12011      6.22090      6.29060        -0.073369     -0.051363     -0.056806
O	      6.27670      4.17648      8.41346        -0.025890     -0.071064     -0.117591
O	      2.05715      6.18846      6.53799        -0.041316      0.014013      0.093230
O	      4.12734      8.31368      6.47771        -0.017584      0.088782      0.006364
O	      4.06704      6.28622      8.38121        -0.073003      0.052349      0.006011
O	      6.17088      8.35946      8.56475         0.015324      0.072215      0.131031
O	      6.26399      6.32576     10.59184         0.052703      0.124594      0.180403
O	      8.20893      8.31130     10.49649        -0.010250      0.007804      0.036082
