# total energy = -229.47074827 eV
 
CRYSTAL
PRIMVEC
-0.029703 6.275914 6.187895 
6.447231 -0.018868 6.177013 
4.301759 4.180640 -0.017083 
PRIMCOORD
36 1
Li	     10.64367      4.16185      6.22920        -0.026777      0.077384     -0.033209
Li	      8.57959      2.18563      6.14480        -0.000423      0.028294     -0.001209
Li	      8.64802     10.32166     10.33386         0.028800      0.039847      0.000842
Li	     10.64673      6.26807      8.20553        -0.021045     -0.024601      0.005133
Li	      8.50390      4.24189      8.19603        -0.026901     -0.086645     -0.045213
Li	      8.64143      6.25784      6.26934         0.025540      0.001446      0.003282
Li	     10.62503      8.32476     10.34231        -0.050012     -0.055785      0.052081
Li	      4.27548      6.20305      6.11296        -0.013207      0.011878      0.007747
Li	      4.38702      4.06679      8.23417         0.018986      0.023164      0.006593
Sc	      6.52403      8.32751     10.39954         0.027515      0.008138      0.083846
Mn	      4.28802      4.20429      4.09863         0.045617     -0.010588     -0.038225
V	      4.22268      8.35697      8.13128        -0.094038     -0.121573      0.041862
Cr	      6.55881      4.17258      6.24205         0.061070     -0.096977     -0.062107
Cr	      2.10938      6.23997      4.12049        -0.048869      0.075059      0.053320
Cr	      6.42598      6.24138      8.21398        -0.170918      0.170322      0.068796
Fe	      2.17194      6.31486      8.15074         0.136727      0.054333      0.173827
Cu	      6.40361      6.29758      4.14407         0.018282     -0.076706     -0.103105
Cu	      2.15075      4.15349      6.16088        -0.009681      0.005811      0.032649
O	      4.12486      8.42509      6.37314        -0.028816      0.012775     -0.113025
O	      2.26840      2.01498      2.17493         0.005107      0.148650     -0.094193
O	      4.43098      4.10966      2.10162        -0.032934      0.112887      0.035555
O	      4.43950      2.22709      3.93985         0.147468      0.032481      0.004134
O	      6.55548      4.21393      4.08903         0.007755     -0.054713      0.037777
O	      6.48059      2.20145      6.21845        -0.004633      0.037365     -0.008310
O	      8.39509      4.22090      6.13467        -0.133800      0.010208      0.036004
O	      2.05621      4.14134      4.20843        -0.020115      0.056219     -0.107913
O	      4.09614      6.12525      4.06409        -0.139509      0.043652      0.009514
O	      4.58645      4.19392      6.01163         0.097676     -0.016839      0.013502
O	      6.45757      6.28967      6.16042        -0.000259     -0.162274      0.161456
O	      6.39609      4.27233      8.08237         0.004137     -0.073979     -0.002207
O	      8.40102      6.24684      8.31435         0.026650     -0.046278     -0.017515
O	      2.13126      6.14811      6.22057        -0.003583      0.044407     -0.268475
O	      4.27441      6.38139      8.25175         0.076782     -0.115467     -0.024920
O	      6.33683      8.34334      8.16845         0.093598     -0.013284      0.087589
O	      6.47142      6.26798     10.23860         0.019074     -0.035451      0.013959
O	      8.55617      8.22405     10.29494        -0.015264     -0.003158     -0.009842
