# total energy = -229.76025497 eV
 
CRYSTAL
PRIMVEC
-0.001562 6.254057 6.246439 
6.268395 0.002905 6.241891 
4.170021 4.157452 0.010919 
PRIMCOORD
36 1
Li	      6.27699     10.38425      8.36798        -0.005058      0.006637      0.005322
Li	      8.31008      4.15858      4.14452        -0.023017      0.022494      0.030920
Li	      6.20952      2.17042      4.15572        -0.061452      0.043789      0.030070
Li	      2.13426      4.23501      2.13969         0.035354      0.015246      0.009866
Li	      4.15198      4.19173      4.11750         0.027269     -0.010903     -0.041183
Li	      4.17416      2.10684      6.21497         0.021353      0.020774     -0.034431
Li	      4.16923      8.23724      4.13729         0.007668     -0.014128     -0.004167
Li	      2.21378      6.20846      4.13559         0.016995     -0.020599      0.024240
Li	      4.15123      6.21441      6.20474         0.027185     -0.011279     -0.030536
Sc	      2.04904      2.10729      4.12199         0.021122     -0.038594     -0.008566
Mn	      8.33458      8.35469      8.44037         0.006046      0.000768      0.007066
V	      6.25037      6.27400     12.36386        -0.077853      0.131992     -0.137106
Cr	      2.11461      8.29069      6.18440        -0.049528      0.013552      0.021583
Cr	      4.19736      2.06942      2.13552        -0.005218     -0.012400      0.058507
Cr	      2.14502      4.19091      6.20342         0.089018     -0.074908     -0.005869
Fe	      6.27194      4.18640      6.19895        -0.064328      0.009124      0.152128
Ni	      4.11149      6.17875      2.14873         0.056258      0.008821     -0.059494
Ni	      6.28532      6.23402      8.40861         0.025059     -0.011919      0.132108
O	      2.17824      2.03598      1.98086         0.045269     -0.020934     -0.008464
O	      4.15625      4.09569      1.89779         0.029340     -0.122194     -0.003836
O	      4.16672      2.09216      4.05444        -0.021597      0.012007      0.009510
O	      6.21020      4.17347      4.33194         0.024416     -0.002254     -0.169363
O	      6.36434      2.04496      6.31187         0.039571     -0.045454     -0.134824
O	      8.34276      4.05740      6.27860         0.109407     -0.059218      0.017432
O	      2.08513      4.16326      4.25553         0.016540     -0.008179     -0.032617
O	      4.20223      6.22420      4.11519         0.001591      0.024971      0.183250
O	      4.14911      4.19621      6.44722         0.003397     -0.014051      0.076907
O	      6.29681      6.27122      6.26555        -0.008199      0.053121     -0.041703
O	      6.09678      4.17612      8.26074        -0.010708     -0.052942      0.050322
O	      8.32156      6.42770      8.36147         0.035364      0.070608      0.009831
O	      1.98236      6.24511      6.23253        -0.110667     -0.002929     -0.032041
O	      4.19101      8.39577      6.31191        -0.019632      0.036360     -0.036857
O	      4.23764      6.21186      8.34743        -0.152702     -0.052095     -0.008445
O	      6.31448      8.31352      8.27461        -0.012705      0.129837     -0.017128
O	      6.23009      6.25858     10.58815        -0.013077     -0.005877      0.067580
O	      8.33488      8.35601     10.36845        -0.002481     -0.019245     -0.080014
