# total energy = -98.84008567 eV
 
CRYSTAL
PRIMVEC
0.000075 2.066143 2.066129 
17.798586 0.001059 -0.000218 
0.000308 2.066161 -2.066146 
PRIMCOORD
16 1
Li	      0.33300      4.12881      0.00196        -0.017634      0.001649     -0.000827
Li	      2.52188      2.06634      0.00020         0.015891     -0.000867      0.000353
Li	      4.17724      0.00055     -0.00014        -0.006502     -0.000231      0.000492
Li	     13.32113      4.13128      0.00063         0.007906      0.002241     -0.001158
Ti	     11.31379      2.06580      0.00018         0.241954     -0.002228      0.001692
Ti	     15.57548      2.06421      0.00129         0.959995      0.002856     -0.002208
Ni	      6.44960      2.06680     -0.00009         0.061923     -0.000957      0.000320
Ni	      8.84765      4.13228      0.00015         0.021584      0.000060     -0.000066
O	     13.18273      2.06526      0.00059        -0.270129      0.000171     -0.000426
O	     15.28515      4.13061      0.00106        -0.031754     -0.000549      0.001074
O	      9.27811      2.06598      0.00023         0.128805     -0.002608      0.001135
O	     11.21728      4.13175      0.00035         0.028888      0.002157     -0.001192
O	      4.53411      2.06676     -0.00007        -0.174119     -0.000403      0.000257
O	      6.89277      0.00057     -0.00004        -0.046410     -0.000821      0.000191
O	     17.31964      2.06461      0.00106        -0.932909     -0.000032      0.000177
O	      2.17574      2.06628     -2.06602         0.012511     -0.000437      0.000186
