# total energy = -225.68869302 eV
 
CRYSTAL
PRIMVEC
0.040545 6.308876 6.234237 
6.282669 0.033774 6.241060 
4.209619 4.231695 0.001301 
PRIMCOORD
36 1
Li	      2.15247      8.40412      6.21310        -0.032676     -0.023203     -0.060038
Li	      2.25931      6.38136      8.37505        -0.004069     -0.005867      0.035120
Li	      8.32452     10.47442     10.32373        -0.058622     -0.085313      0.022274
Li	      2.06753      4.15748      2.21611         0.005084      0.024655      0.056738
Li	      6.26373      6.32741      4.12300        -0.007339     -0.018919      0.034213
Li	      6.19947      4.33081      6.18259        -0.071242      0.059409     -0.054256
Li	      0.04148      4.15306      4.11790        -0.015164      0.007543     -0.017387
Li	      4.27901      6.21677      6.33837        -0.001286     -0.093970      0.048986
Li	      4.23517      4.33029      8.31864        -0.020846     -0.015636      0.052801
Sc	      4.13953      2.21637      6.20913        -0.045145      0.004875     -0.002750
Mn	      6.40831      2.26532      8.30235         0.022671      0.008651     -0.027576
V	      4.21431     10.41750      6.32095         0.102126     -0.003479     -0.115533
Cr	      6.39557      8.51704     10.37445        -0.049889     -0.053848      0.010753
Cr	      2.16730      6.33100      4.13540         0.018916      0.046975      0.058807
Cr	      6.23494      6.28316      8.33906         0.021800     -0.004320      0.031735
Ni	      4.11146      2.02239      2.16859        -0.053290      0.098708     -0.079800
Ni	      4.24374      4.26591      4.16635         0.008425      0.015849     -0.043198
Ni	      2.14011      4.21961      6.23272        -0.049526      0.007636      0.087165
O	      2.00036      2.13838      2.07029        -0.125704      0.032781     -0.025604
O	      4.25720      4.36326      1.91727        -0.011137      0.106778     -0.011275
O	      4.26288      2.18285      4.14794         0.017036     -0.078260      0.138829
O	      6.28017      4.14236      4.16336         0.110093      0.040022     -0.003684
O	      6.29442      2.03577      6.27622         0.023529      0.038622      0.068109
O	      8.69079      4.29501      6.15728        -0.104373     -0.005296     -0.021894
O	      2.18497      4.32258      4.19962        -0.120640      0.010976     -0.118697
O	      4.17745      6.34193      3.97043         0.076035      0.114789     -0.102985
O	      4.16656      4.24085      6.22001         0.144630     -0.111815      0.110299
O	      6.30983      6.34849      6.35603         0.050999     -0.058286     -0.021296
O	      6.34284      4.16349      8.26572         0.017862     -0.081772     -0.008970
O	      8.46067      6.33780      8.33442         0.015347     -0.006310     -0.000452
O	      1.94690      6.30269      6.14274         0.025309      0.095659      0.040528
O	      4.24662      8.61369      6.32544        -0.089276      0.042292     -0.115014
O	      4.29403      6.34663      8.32127         0.022434     -0.147870      0.036504
O	      6.23055      8.28838      8.38193         0.134381      0.017093      0.047936
O	      6.42000      6.39375     10.45407        -0.010047      0.013892     -0.032239
O	      8.34813      8.36896     10.40165         0.053594      0.006961     -0.018148
