# total energy = -230.67235570 eV
 
CRYSTAL
PRIMVEC
-0.014730 6.220748 6.233797 
6.411457 -0.012453 6.231096 
4.274167 4.146029 -0.007963 
PRIMCOORD
36 1
Li	      6.43166      4.06669      2.22548        -0.050693     -0.021751     -0.102544
Li	      8.26123      4.21720      4.09580         0.027683     -0.015484      0.035258
Li	      6.34898      2.26359      4.08703        -0.016635     -0.059804     -0.046645
Li	      2.14912      4.14114      2.12679         0.001775     -0.006561      0.019502
Li	      6.48716      6.09621      4.23463        -0.001210      0.072935      0.052900
Li	      4.46101      4.11568      4.17338        -0.076710     -0.007740      0.004803
Li	      6.31419      4.19987      6.03010        -0.025697     -0.004889      0.066738
Li	      0.06585      4.17012      4.16349        -0.002969     -0.009010      0.011362
Li	      6.48392      8.19612      6.24846         0.081069     -0.026370      0.010540
Sc	      4.31806      6.24202      2.17766         0.007517      0.062330     -0.038956
Mn	      4.33368      2.08884      2.13872         0.000461     -0.005429      0.053150
Mn	      4.18918      2.06159      6.09097         0.033422      0.019339      0.033649
V	      8.51787      2.13964      6.13968        -0.046325      0.044313      0.087948
Cr	      6.40265      6.21267     12.43336        -0.088248      0.087738      0.017238
Cr	      2.10732      6.05316      4.20790        -0.115087     -0.351208     -0.003537
Cr	      8.49290      8.30399      8.34618         0.009107      0.024658     -0.067788
Cu	      4.35432      6.14846      6.20247         0.154530     -0.098142      0.013120
Ni	      6.41271      6.17373      8.32358        -0.018373      0.046024     -0.034184
O	      6.37311      4.19873      4.11287         0.014968     -0.001300     -0.048099
O	      2.08003      2.13029      1.82078        -0.037069     -0.012383     -0.169000
O	      4.24099      4.12372      1.97858         0.026129     -0.010457     -0.115554
O	      4.26551      2.07892      4.03170        -0.008713     -0.021124     -0.099027
O	      6.42841      2.01083      6.25101         0.121871     -0.117917      0.057133
O	      8.67639      4.13810      6.12580         0.092401     -0.211922      0.004086
O	      2.10477      4.26377      4.18373         0.015337      0.384402      0.025259
O	      4.08429      6.23164      4.26137        -0.149346      0.009148     -0.155365
O	      4.26533      4.01683      6.35382         0.020305      0.227253      0.083991
O	      6.54447      6.17916      6.25588        -0.120201     -0.008183     -0.079621
O	      6.26439      4.12074      8.37902        -0.069225     -0.202491      0.084445
O	      8.55664      6.24289      8.40577         0.160007      0.062339      0.128184
O	      2.01909      6.32897      6.16935        -0.157486      0.009684     -0.112742
O	      4.10586      8.34384      6.32983        -0.068885      0.101611     -0.000425
O	      4.32454      6.19528      8.18455        -0.066464      0.020179      0.067073
O	      6.47126      8.23260      8.30288         0.083855      0.093565     -0.003504
O	      6.63063      6.21273     10.43584         0.272328     -0.037810      0.134456
O	      8.53783      8.22808     10.48562        -0.003432     -0.035542      0.086154
