# total energy = -221.34910569 eV
 
CRYSTAL
PRIMVEC
0.002689 6.349132 6.222187 
6.240574 -0.004231 6.229106 
4.145892 4.223208 0.012063 
PRIMCOORD
36 1
Li	      6.25794      4.21600      2.15523        -0.000624      0.007516      0.027590
Li	      4.19144      8.35803      8.35661        -0.060770      0.001539      0.031328
Li	      8.26278      4.29993      4.23678        -0.000931     -0.010780      0.101723
Li	      2.18326      2.13948      4.15303         0.015338      0.011545      0.006243
Li	      4.12341      4.15169      4.25540         0.040521     -0.017150     -0.004563
Li	      8.16427      6.30219      6.18721        -0.123598     -0.002148      0.059874
Li	      6.25348      4.29465      6.12616         0.022170     -0.008264     -0.002066
Li	      2.10455      4.17225      6.11239         0.040840     -0.078215     -0.030550
Li	      6.17443      6.44132      8.28565         0.021204      0.040077     -0.016120
Sc	      8.24569      8.46390      8.29924        -0.043695     -0.078950     -0.041345
V	      4.20145      6.25487      2.16209         0.039574     -0.017812     -0.118581
Cr	      0.03603      6.34216      6.21116        -0.055460      0.109201      0.128131
Cr	      6.05526      2.20697      4.14316        -0.209439      0.116490      0.041425
Cr	      4.25029      6.31375      6.21958         0.204708     -0.082787      0.115800
Co	      2.10347      8.47763      6.23702        -0.116219      0.100000     -0.015187
Cu	      6.26439      4.25099     10.37664        -0.090944     -0.005086     -0.076587
Ni	      8.29209      4.21569      8.31953         0.098913      0.105005     -0.042481
Ni	      2.07074      6.30894      4.15643         0.041721      0.003342     -0.099150
O	      1.99630      2.13327      1.96641         0.085022     -0.084973     -0.004376
O	      4.15329      4.38268      2.02159         0.094809      0.065469     -0.000914
O	      4.24337      2.11288      4.18630         0.113042     -0.004010      0.054752
O	      6.30212      3.99792      4.18673         0.022629     -0.062157     -0.019371
O	      6.37110      2.03515      6.29627         0.050426     -0.106662     -0.050472
O	      8.42707      4.08156      6.28889         0.045727     -0.088663     -0.139818
O	      1.95992      4.29081      4.09806        -0.008925     -0.130914      0.194168
O	      4.14288      6.18984      4.14426         0.060390     -0.068524     -0.044698
O	      4.11700      4.38200      6.26081        -0.019200      0.089694      0.006536
O	      6.06501      6.35761      6.17761        -0.245522      0.032237     -0.008456
O	      6.22301      4.01478      8.34508        -0.029465     -0.066107     -0.066791
O	      8.40001      6.34051      8.28995         0.045922      0.067697     -0.091961
O	      2.13633      6.51789      6.19588         0.060747     -0.046481      0.121754
O	      4.04737      8.49283      6.16636         0.093193     -0.021104      0.130057
O	      4.17123      6.32417      8.09402        -0.050100      0.029195     -0.087749
O	      6.20911      8.44815      8.44670         0.021166      0.035585     -0.014001
O	      6.28921      6.59327     10.47576        -0.102059      0.066543     -0.026414
O	      8.34791      8.43605     10.48337        -0.061111      0.099651     -0.017731
