# total energy = -220.64663986 eV
 
CRYSTAL
PRIMVEC
0.000550 6.207772 6.282989 
6.302078 -0.019918 6.303296 
4.184618 4.135018 0.003542 
PRIMCOORD
36 1
Li	      6.30664      4.12070      2.21259        -0.060974      0.040382      0.005660
Li	      4.12018      0.09069      4.20012         0.005968      0.005899      0.021408
Li	      4.21893      4.08682      4.34614        -0.029706      0.053117     -0.026730
Li	      8.19902      6.25737      6.22706         0.058647     -0.005995      0.056993
Li	      6.19512      4.23031      6.21371        -0.026363     -0.047677      0.043317
Li	      0.12819      4.14431      4.15853        -0.006654     -0.044488     -0.008811
Li	      2.10540      6.06470      4.20810         0.046860     -0.045387     -0.029737
Li	      2.18893      4.01134      6.14023        -0.005744      0.010898     -0.032188
Li	      6.27404      6.20260      8.36209         0.058127     -0.001247     -0.054320
Sc	      4.16809      4.16897      8.30448         0.032935     -0.232101      0.162651
V	      8.40914      8.25512     12.44822         0.001762      0.039957      0.209198
Cr	      6.35514      6.19654     12.50863        -0.017078      0.008520      0.075196
Cr	      4.25852      8.22534      8.40852         0.014472      0.167617      0.086221
Cr	      8.35990      4.14033      8.44177        -0.121609      0.176615     -0.034798
Co	      4.13953      6.20466      2.27424         0.207350     -0.093881     -1.039657
Ni	      6.21108      2.15325      4.24224         0.060114     -0.058081      0.044933
Ni	      6.33026      6.15364      4.24284        -0.342098     -0.003561     -0.207566
Ni	      4.25900      6.14088      6.23457        -0.143286      0.200462     -0.032169
O	      2.14466      2.11915      1.99729         0.162251      0.045748     -0.026623
O	      4.11096      4.09433      1.94537         0.029673     -0.063360      0.077443
O	      4.19859      2.06234      4.08031        -0.098121      0.011158     -0.003236
O	      6.30271      4.16254      4.21697         0.023151      0.095053      0.008981
O	      6.43308      1.95898      6.39374        -0.187627      0.122897      0.197086
O	      8.56500      4.02800      6.40220        -0.014441      0.040905     -0.090894
O	      2.09708      4.02421      4.08077         0.057900     -0.038849      0.007742
O	      4.22378      6.16007      4.11643         0.140779      0.083228      0.316407
O	      4.14962      4.15391      6.34547        -0.038945     -0.188054     -0.059899
O	      6.23144      6.19101      6.18432         0.127526      0.021674      0.234427
O	      6.32867      4.05359      8.41516         0.240278      0.079389      0.070562
O	      8.44703      6.15038      8.43955        -0.263663     -0.137451      0.152493
O	      1.98931      6.32411      6.31762         0.003010     -0.081265     -0.007614
O	      4.09900      8.30831      6.32454         0.080406      0.037383     -0.008921
O	      4.23068      6.24998      8.33407        -0.048794     -0.145059     -0.046561
O	      6.24841      8.27217      8.48781         0.069430      0.010933     -0.087526
O	      6.29332      6.27859     10.70053        -0.010890     -0.096656      0.111273
O	      8.35767      8.30495     10.65887        -0.004645      0.031275     -0.084740
