# total energy = -223.93133924 eV
 
CRYSTAL
PRIMVEC
-0.000391 6.329271 6.139096 
6.358154 -0.008780 6.147559 
4.216587 4.202805 0.016870 
PRIMCOORD
36 1
Li	     10.50707      4.18680      6.19015         0.021438     -0.016807      0.014695
Li	      8.47554      2.13146      6.16910         0.020375     -0.045923      0.097469
Li	      6.29672     10.44993      8.10280         0.024275     -0.087427      0.082836
Li	      4.21925      2.26284      1.91299         0.037919      0.080435      0.062049
Li	      8.50078      4.12521      4.29088         0.015232      0.035704     -0.033571
Li	      4.20161      4.19858      4.10986         0.013728     -0.047601     -0.033699
Li	      4.40822      1.99362      6.12695        -0.054536      0.055323     -0.052752
Li	      6.45797      4.07172      6.13674        -0.038571      0.052160     -0.015084
Li	      2.06665      4.36716      6.12271         0.013405     -0.066873      0.058709
Sc	      6.36348      6.35543      8.15240        -0.119490      0.281535      0.036256
V	      2.29774      1.99060      4.13989         0.222792      0.102088     -0.039311
Cr	      6.35275      2.04450      8.10602         0.048546     -0.057881     -0.005339
Cr	      4.21205      8.41992      4.16508         0.103495      0.088294     -0.036761
Cr	      4.12954      6.30952      6.16450         0.070414      0.093752     -0.034361
Co	      8.49811      4.17406      8.14351        -0.195019      0.070713     -0.011080
Co	      4.21980      4.24373      8.15213        -0.047557      0.094544     -0.207125
Cu	      6.43641      8.37920     10.36943        -0.148905      0.039892     -0.095740
Ni	      2.09710      6.30814      4.16836        -0.059729     -0.119603     -0.089709
O	      2.00541      2.21996      2.20062        -0.011766      0.014232     -0.044997
O	      4.05767      4.30049      2.07515         0.009291      0.080363     -0.040029
O	      4.03096      2.13805      4.09380        -0.160846     -0.027443      0.007791
O	      6.29889      4.46637      4.07598        -0.035158     -0.043878     -0.000203
O	      6.34572      2.13863      6.13308        -0.019676      0.046828      0.097025
O	      8.45338      4.19785      6.29650         0.008377     -0.003366      0.033894
O	      2.02469      4.12413      3.98308        -0.066310      0.008902      0.008101
O	      4.24683      6.38305      4.06913        -0.004074      0.031772      0.067730
O	      4.18195      4.30316      6.28993         0.032224     -0.069759      0.227124
O	      6.24095      6.37175      5.99482        -0.088119     -0.015876      0.055336
O	      6.36004      4.16369      8.21906         0.689457     -0.103850      0.081563
O	      8.51617      6.32324      8.20293         0.145255     -0.317816     -0.075221
O	      2.18809      6.32065      6.13653         0.049273      0.008099      0.129871
O	      4.22061      8.31286      6.10411        -0.016824     -0.061947     -0.008365
O	      4.28805      6.20368      8.14837         0.207646      0.337877     -0.077571
O	      6.45302      8.41075      8.38751        -0.827784     -0.277053      0.058827
O	      6.39168      6.21135     10.21195        -0.087982     -0.196785      0.011167
O	      8.54367      8.37777     10.11745         0.249202      0.037375     -0.229526
