# total energy = -225.97890359 eV
 
CRYSTAL
PRIMVEC
0.006078 6.396972 6.190996 
6.184240 0.051420 6.146670 
4.138506 4.250552 0.018253 
PRIMCOORD
36 1
Li	      4.12387      4.22431      0.19049         0.013578     -0.007367     -0.042948
Li	      6.18732     10.60458      8.25360        -0.075414      0.053995      0.002377
Li	      4.17414      8.64857      8.15262        -0.100091      0.135558      0.035558
Li	      6.13559      2.22581      4.05742         0.061744     -0.033468      0.085355
Li	      6.19891      2.11288      8.12732         0.007765     -0.117163     -0.003870
Li	      2.16115      4.22147      1.97933         0.126459      0.003234     -0.015233
Li	      6.16344      4.32337     10.22957        -0.053722     -0.015717      0.071268
Li	      4.06663      6.54423      6.30508        -0.043207     -0.010930     -0.091383
Li	      6.11371      6.40005      8.21050         0.050170     -0.010448      0.057739
Sc	      1.98552      2.17634      3.96725         0.031464      0.098948      0.080859
V	      8.12654      6.48806     10.20653         0.022279      0.621976      0.485016
Cr	      4.14669      4.28440      4.02704        -0.232235     -0.091886      0.430532
Cr	      6.20954      4.29418      6.26593        -0.100864     -0.062035     -0.386620
Cr	      6.13816      8.52926      6.27707         0.084015      0.158366     -0.417555
Co	      2.14421      8.46990      6.27989        -0.049703      0.128174     -0.190590
Co	      4.16907      2.17086      6.19415         0.086290      0.174114     -0.012299
Co	      8.26724      8.54928      8.27474        -0.021708      0.846064      0.268421
Cu	      4.16498      6.45893     10.23132         0.046918     -0.042420      0.201836
O	      2.09987      2.14888      2.02967         0.000982     -0.014960     -0.073088
O	      4.14561      4.24278      2.14453         0.097664      0.024425     -0.094737
O	      4.11908      2.27633      4.27560         0.000544      0.031421     -0.008105
O	      6.14092      4.35348      4.21895         0.153207     -0.057520     -0.012011
O	      6.14550      2.30668      6.14779        -0.111291      0.109503      0.039804
O	      8.22087      4.46016      6.06676        -0.065790      0.001361     -0.018338
O	      2.10894      4.36838      4.15722        -0.022861     -0.119182      0.019192
O	      4.03489      6.27680      4.12854         0.157762      0.107910     -0.031959
O	      4.13199      4.14576      6.28251         0.012971     -0.286460     -1.911240
O	      6.33005      6.44396      6.17928        -0.046730     -0.051718      0.135011
O	      6.08398      4.30788      8.19153        -0.277590     -0.031716      0.105652
O	      8.26782      6.50476      8.30637         0.031608     -0.275093     -0.565569
O	      2.07872      6.31718      5.97545         0.041734     -0.280386      0.279001
O	      4.18592      8.49949      6.18625         0.124511     -0.093484      0.049143
O	      4.12295      6.19403      8.35336         0.071020     -0.011896     -0.070873
O	      6.30654      8.54063      8.19813         0.214853     -0.065619      0.177795
O	      6.37002      6.39981     10.25924        -0.183645     -0.030455     -0.084649
O	      8.28526      8.33920     10.25739        -0.052689     -0.785126      1.506509
