# total energy = -227.20254565 eV
 
CRYSTAL
PRIMVEC
0.050743 6.187131 6.307512 
6.249362 0.023208 6.334550 
4.155648 4.132150 0.026520 
PRIMCOORD
36 1
Li	      2.10599      2.06678      0.14436         0.046623     -0.016310      0.052140
Li	      2.14445      6.19726      8.42323        -0.041995      0.027963      0.023296
Li	      0.06850      2.09217      2.11683         0.022070     -0.019776     -0.016571
Li	      2.11055      4.03443      2.10150         0.070318     -0.009919      0.017938
Li	      4.16401      4.16529      4.07627         0.023198      0.007498     -0.129848
Li	      6.29273      4.09867      6.39382        -0.029626      0.023655      0.012761
Li	      6.28297      4.12298     10.47317         0.003750      0.017685     -0.022971
Li	      4.07280      6.23438      6.36859        -0.024975      0.025801     -0.027090
Li	      6.21828      6.14099      8.47762        -0.000920     -0.051390      0.002333
Sc	      6.11163      6.16275      4.18695         0.006259     -0.037488      0.074349
V	      8.32752      6.21486      6.45502        -0.083078      0.117617     -0.011300
Cr	      4.16403      4.14061      0.04535         0.070695     -0.065067     -0.004792
Cr	      4.23420      8.26893      8.41612        -0.002086     -0.065717      0.066014
Cr	      2.13961      6.16700      4.18123        -0.018077      0.081498     -0.082344
Co	      6.24228      2.12251      4.21545        -0.062753      0.054092      0.055394
Co	      2.14010      4.17880      6.28756         0.050047     -0.056118     -0.028077
Co	      4.24504      4.19749      8.42295         0.069821     -0.036399     -0.088518
Ni	      8.36995     10.30072     10.55484         0.024149      0.010859      0.072939
O	      2.19918      2.05021      2.14887        -0.014977     -0.021156     -0.008154
O	      4.19424      4.03998      2.01774         0.013790      0.054760      0.006123
O	      4.26201      2.07108      4.24682         0.059454      0.121635     -0.042987
O	      6.26979      4.06484      4.27519        -0.118311     -0.042720     -0.005959
O	      6.10798      2.05558      6.20133         0.129191      0.036552     -0.022106
O	      8.39897      4.24051      6.34356        -0.027233     -0.064135      0.136695
O	      2.08607      4.16669      4.18790        -0.003550     -0.021656      0.085162
O	      4.12941      6.17862      4.23774        -0.060482      0.006207     -0.042615
O	      4.16962      4.07387      6.53322         0.144030      0.113338      0.128843
O	      6.49225      6.19603      6.30764        -0.031791      0.036995     -0.027948
O	      6.05658      4.15109      8.44687        -0.192450     -0.021335      0.030582
O	      8.38155      6.35529      8.39502        -0.065041      0.095537      0.085613
O	      2.05667      6.23000      6.16262         0.003767     -0.015662      0.001057
O	      4.25438      8.31050      6.44122        -0.026124     -0.016750     -0.022701
O	      4.22048      6.12165      8.46855        -0.057330     -0.108003     -0.089369
O	      6.34639      8.24967      8.58063         0.017913     -0.033296     -0.084960
O	      6.33268      6.34077     10.60366         0.084095     -0.020894     -0.018753
O	      8.23410      8.24928     10.41269         0.021627     -0.107899     -0.074175
