# total energy = -102.56514373 eV
 
CRYSTAL
PRIMVEC
4.115129 -0.000247 0.000448 
2.057060 4.188656 -6.425505 
2.057466 4.117917 2.096103 
PRIMCOORD
16 1
Li	      6.17325      4.12429      1.90795        -0.002975     -0.005409     -0.008388
Li	      2.05739      2.22696     -0.08809        -0.000137     -0.009483     -0.002300
Li	      4.11598      4.15838      0.00631        -0.001093     -0.026352      0.047161
Li	      4.11369      4.17134     -4.33056        -0.000684      0.011487     -0.043157
Ti	      4.10612      6.25641     -2.11500         0.004134      0.058609      0.088125
Ti	      6.16986      6.29897     -4.50084         0.002784      0.547260     -0.387811
Ni	      4.11514      2.02966     -1.98391         0.000069      0.098536      0.073532
Ni	      2.05811      4.14736     -2.05688        -0.001812     -0.014809     -0.034052
O	      4.11629      4.27904     -2.14650        -0.002748      0.130346     -0.008313
O	      6.17495      6.22153     -2.24213         0.007377      0.123473     -0.040353
O	      4.11555      1.99598      0.09087        -0.001882      0.023763      0.422363
O	      6.17354      4.19877     -0.06507        -0.000323     -0.164731      0.110099
O	      2.05841      2.13125     -2.25739        -0.001816     -0.103094     -0.177047
O	      2.05793      4.07206     -4.22653        -0.000449     -0.089177     -0.048022
O	      4.11581      6.17775     -4.18968         0.000377     -0.011663      0.051778
O	      6.17271      8.08097     -4.32455        -0.000822     -0.568758     -0.043616
