# total energy = -227.63546718 eV
 
CRYSTAL
PRIMVEC
-0.024246 6.325079 6.355628 
6.298162 -0.028575 6.360274 
4.175305 4.195708 0.005242 
PRIMCOORD
36 1
Li	      6.20107      4.27074      2.31277         0.049566      0.010744      0.036733
Li	      4.20584      2.08861      2.20942        -0.074400      0.011567      0.067619
Li	      8.11488      4.23810      4.15816         0.018595      0.135530     -0.020991
Li	      6.19343      2.34122      4.18502        -0.097631      0.050127      0.007839
Li	      0.09173      2.02710      2.02460        -0.096490     -0.004553     -0.026633
Li	      6.32252      6.06459      4.23437         0.135865      0.009113     -0.038799
Li	      4.41286      4.17365      4.19349        -0.015434     -0.167775      0.016553
Li	      6.17475      4.28828      6.09828         0.031364      0.030935     -0.037219
Li	      4.30643      6.17399      6.45434        -0.001272      0.047339     -0.015810
Sc	      2.18796      4.14748      2.11826         0.113256     -0.056724     -0.005209
V	      4.15605      8.30284      4.28670        -0.111642      0.097545     -0.071919
Cr	      8.32373      2.07908      6.38023        -0.105188      0.007303     -0.203539
Cr	      2.05619      6.32022      4.27700        -0.002170      0.078099      0.087886
Cr	      6.24113      6.29731      8.50796        -0.175254      0.292589     -0.112701
Co	      4.09160      4.26227      8.40540         0.786751     -0.466234      0.669071
Co	      6.28133     -0.01340      6.35346         0.017388      0.075487     -0.050981
Co	      4.22952      2.11193      6.07495        -0.190993      0.236684      1.715436
Co	      6.29282      8.38525      6.43016        -0.143135      0.028738     -0.070431
O	      6.24934      4.21417      4.23361        -0.046636      0.051316      0.033900
O	      2.07079      2.15376      1.98106         0.000521      0.076360      0.002794
O	      4.18043      4.20772      1.93524        -0.108904     -0.042138     -0.017468
O	      4.16019      2.12576      4.32497        -0.074030      0.027568     -0.566275
O	      6.28209      1.91194      6.33305        -0.252489     -0.080898     -0.095316
O	      8.49937      4.16517      6.37486         0.018073      0.126822     -0.110698
O	      1.99087      4.29859      4.27649        -0.011106      0.050851     -0.127395
O	      4.09385      6.49380      4.32025         0.011689     -0.077603      0.007453
O	      4.19617      4.12204      6.47217        -0.070078     -0.395084      0.402044
O	      6.37353      6.32148      6.52131         0.508010     -0.106484     -0.230764
O	      6.24990      4.25683      8.65114        -0.552679      0.040632     -0.095984
O	      8.29939      6.30745      8.60762        -0.030257      0.732438     -0.189990
O	      1.91696      6.37928      6.26754         0.001344      0.057087     -0.032153
O	      4.08824      8.54820      6.25924        -0.061730      0.008627      0.093779
O	      4.27339      6.19800      8.46675        -0.139910     -0.756405     -0.232376
O	      6.33907      8.30411      8.51510         0.589941     -0.008139     -0.354032
O	      6.34991      6.12646     10.64168         0.046218     -0.079343     -0.018495
O	      8.45089      8.31703     10.66939         0.032848     -0.042117     -0.415931
