# total energy = -225.15444113 eV
 
CRYSTAL
PRIMVEC
0.058308 6.213705 6.361545 
6.252641 0.039022 6.380420 
4.171830 4.158414 0.023473 
PRIMCOORD
36 1
Li	      4.13811      4.15575      0.10951         0.181266     -0.044599      0.097331
Li	      4.24791      2.10473      2.25633         0.075083      0.017481     -0.005771
Li	      6.14245      2.21365      4.18164         0.097213      0.096114     -0.190817
Li	      2.20107      2.06482      4.30136        -0.028342     -0.100269      0.015163
Li	      4.27400      4.03795      4.28712         0.081970      0.076760     -0.063878
Li	      6.22514      4.21627      6.38896        -0.036814     -0.017864     -0.026300
Li	      6.35200      8.22753      6.50283        -0.016831      0.062628      0.146765
Li	      4.09579      4.24470      8.36673        -0.108359      0.071857     -0.072734
Li	      6.20870      6.31727      8.42467        -0.126604      0.196941     -0.028619
Sc	      8.30267      6.27767     10.60813         0.032992      0.081738      0.247980
V	      6.29605      4.21762     10.56582        -0.128055     -0.074725      0.201740
Cr	      8.31949      2.18214      6.39951        -0.066656     -0.468572      0.222371
Cr	      8.31906      6.27790      6.38526        -0.029666      0.274689      0.032103
Cr	      4.28023      6.15429      6.36851        -0.035707     -0.045767      0.064387
Fe	      4.21896      6.14480      2.11902         0.205178     -0.292702      0.193009
Co	      6.34607     10.31809      8.51164         0.437532     -0.041086      0.052890
Cu	      4.15860      0.09832      4.19427        -0.250018     -0.083402     -0.163122
Cu	      2.15668      4.11436      2.16411         0.132435     -0.156435      0.237192
O	      6.39029      4.20531      3.97734         0.053700      0.012530      0.463164
O	      2.05885      1.98698      2.02596         0.054063      0.502942     -0.229203
O	      4.36104      4.19199      2.19239        -0.400209      0.126736     -0.000671
O	      4.19218      2.01850      4.41745         0.020143     -0.017813      0.043648
O	      6.27108      2.13697      6.49865        -0.066963      0.019069     -0.083908
O	      8.37107      4.18503      6.62479        -0.011552      0.177734     -0.307748
O	      2.00510      4.17778      4.16501         0.185900     -0.121695      0.002471
O	      4.17069      6.28435      4.27308        -0.010615     -0.019738     -0.007466
O	      4.22072      4.14266      6.31264         0.010985     -0.145576     -0.006187
O	      6.29349      6.22304      6.45444         0.122172     -0.074666     -0.143452
O	      6.20116      4.06471      8.75519        -0.200247      0.115481     -0.258423
O	      8.43762      6.25470      8.51387        -0.190764     -0.055413     -0.176710
O	      2.20010      6.31019      6.38335        -0.025770      0.026515     -0.328332
O	      4.13755      8.20577      6.16409         0.084956      0.100256     -0.000832
O	      4.09455      6.23680      8.31232         0.191891      0.147824      0.136576
O	      6.29279      8.50496      8.49104        -0.065602     -0.498476     -0.068243
O	      6.25488      6.15914     10.61663        -0.069779      0.071935      0.034462
O	      8.42319      8.39564     10.75288        -0.098926      0.079566     -0.028838
