# total energy = -224.88333875 eV
 
CRYSTAL
PRIMVEC
-0.026928 6.333382 6.261761 
6.213511 0.001628 6.233389 
4.156275 4.217644 -0.012958 
PRIMCOORD
36 1
Li	      6.12400      2.05145      4.20643         0.009849     -0.036941      0.056333
Li	      6.16305      2.17027      8.32548         0.003382      0.069617      0.023873
Li	      2.09405      2.18033      4.24092         0.008866      0.022081     -0.002011
Li	      4.04835      4.22115      4.32729        -0.062225     -0.011452      0.101178
Li	      4.20596      2.18624      6.19676         0.057987      0.079451     -0.104709
Li	      6.11282      4.29670      6.22101         0.002646     -0.005992      0.004913
Li	      2.08896      6.26211      4.10540         0.039473      0.001592     -0.018677
Li	      6.27416      8.30599      6.18406         0.049124     -0.026308     -0.059655
Li	      6.23387      6.32962      8.21442        -0.006992     -0.034622      0.019523
Sc	      8.19828      2.10490      6.21501        -0.207993     -0.040160     -0.113021
V	      6.06124      4.13859      2.16347         0.579094      0.461958     -0.005050
Cr	      4.17448      0.07131      4.14222        -0.010034     -0.137127      0.116467
Cr	      4.20091      8.39925      4.19171         0.004144      0.095334     -0.070283
Cr	      8.30340      8.37141      8.27201         0.032396     -0.017364     -0.008098
Fe	      8.20818      4.44208      8.32742        -0.116642      0.042988     -0.099090
Co	      4.18360      8.44483      8.34294        -0.055242     -0.268279     -0.032922
Ni	      6.20086      6.36894     12.44394         0.058639      0.037611     -0.054619
Ni	      4.19597      6.26269      6.21267        -0.153461     -0.031364      0.093645
O	      6.08586      6.31397      6.22810         0.090357      0.004663      0.000435
O	      2.18804      1.94121      2.05840        -0.506565     -0.242418     -0.125865
O	      4.23922      4.27642      2.06308        -0.041862     -0.194708      0.062885
O	      4.17058      2.01704      4.00833         0.062525     -0.064763      0.600555
O	      6.27678      4.22975      3.94135         0.006586     -0.060851     -0.021637
O	      6.23595      2.05549      6.20239         0.154355      0.094968      0.041654
O	      8.30155      4.21224      6.25650        -0.053884     -0.055014      0.024839
O	      2.03179      4.24745      4.00449         0.027120     -0.023391      0.049088
O	      4.13796      6.45876      4.26031         0.002578     -0.036270     -0.071169
O	      4.12723      4.24920      6.34493        -0.012121     -0.102436      0.009764
O	      6.21188      4.19667      8.41995        -0.050213     -0.012461     -0.052409
O	      8.26893      6.34804      8.29485        -0.007295      0.177502     -0.010482
O	      2.10493      6.33618      6.46759        -0.002440     -0.031819      0.010064
O	      4.15968      8.46388      6.26718         0.013717      0.017279     -0.307152
O	      4.00026      6.20812      8.38068         0.018349      0.031920      0.030212
O	      6.23876      8.59235      8.34053         0.117720      0.262112     -0.026714
O	      6.12532      6.23685     10.42958        -0.041678      0.024261     -0.118830
O	      8.35690      8.51572     10.35615        -0.010259      0.010402      0.056964
