# total energy = -228.95312233 eV
 
CRYSTAL
PRIMVEC
-0.037138 6.389104 6.176161 
6.202699 -0.052037 6.191029 
4.106362 4.240483 -0.005876 
PRIMCOORD
36 1
Li	      6.17718      6.35996     12.24250        -0.023016      0.006223     -0.043560
Li	      4.19903      6.29260     10.21818        -0.017405     -0.007938     -0.017911
Li	     10.17526      6.39997      8.25965         0.014502     -0.056771      0.037686
Li	      4.19609      2.18448      6.24792        -0.008315     -0.012512      0.030988
Li	      6.05477      4.12950      6.26255         0.012398     -0.077510      0.028871
Li	      6.09041      4.30556     10.23030         0.014111      0.096918      0.013852
Li	      8.23237      6.36766     10.23801         0.037112      0.008793      0.016642
Li	      4.12040      6.28298      6.20052        -0.021368     -0.005806     -0.000878
Li	      4.26922      4.14694      8.27142         0.023872     -0.054573     -0.035788
Sc	      8.24511      8.38730     12.26814        -0.000581     -0.014313     -0.018429
V	      8.16975      4.29884      8.17630        -0.101481      0.021042     -0.052893
Cr	      2.07378      0.03385      2.06760        -0.010446     -0.032415     -0.004527
Cr	      6.14915      8.41989     10.30117        -0.027799      0.004093     -0.035847
Cr	      2.05924      4.27882      6.17360         0.004578     -0.008077      0.021234
Fe	      6.08510      6.28644      4.26851         0.091184      0.025453     -0.080653
Co	      4.11450      2.14528      2.05582        -0.014563      0.018705      0.042687
Co	      4.11077      4.21575      4.15669        -0.003233      0.017716     -0.014719
Cu	      6.11781      6.30840      8.22567        -0.005800     -0.028449     -0.044805
O	      2.16871      2.10377      2.12238         0.084811     -0.040569     -0.045190
O	      4.10296      4.12643      2.18611         0.018035     -0.077876      0.119543
O	      4.11608      2.21922      4.02004         0.024359      0.074290     -0.044742
O	      6.07953      4.21667      4.10164        -0.070816     -0.049304     -0.052399
O	      6.22395      2.06328      6.09158         0.073020     -0.031679     -0.065666
O	      8.30545      4.11919      6.39398        -0.045924     -0.000193      0.021055
O	      2.14504      4.12828      4.10213         0.090475      0.009413      0.031250
O	      4.17894      6.15212      4.10015        -0.082896     -0.141025      0.046840
O	      4.03971      4.23220      6.10586        -0.042374     -0.010341     -0.100697
O	      6.17640      6.47352      6.19971         0.020341      0.087806      0.006121
O	      6.31690      4.11470      8.30074         0.094272     -0.111457     -0.016784
O	      8.19031      6.14959      8.26346        -0.000237     -0.109660     -0.043810
O	      2.02341      6.33341      6.24675        -0.009390      0.039259      0.051902
O	      4.14294      8.53254      6.25320        -0.009187      0.034703      0.089731
O	      4.02219      6.59746      8.25347        -0.013431      0.177647     -0.027923
O	      6.03324      8.67305      8.21307        -0.064970      0.170291      0.033401
O	      6.13464      6.46988     10.18703         0.033747      0.059774      0.071818
O	      8.15933      8.47818     10.26173        -0.063587      0.018338      0.083601
