# total energy = -226.53243687 eV
 
CRYSTAL
PRIMVEC
0.011408 6.228525 6.304780 
6.244170 0.029403 6.286628 
4.172733 4.150238 0.009625 
PRIMCOORD
36 1
Li	     10.34144      4.27678      6.40657        -0.014775      0.026945      0.077476
Li	      4.16341      2.12579      2.18320        -0.068885      0.026892      0.047716
Li	      6.16898      2.15227      4.29212        -0.011189      0.081910      0.098585
Li	      6.27220      2.07193      8.26593        -0.033113      0.032730     -0.003993
Li	      8.35151      4.17955      8.28137         0.000334     -0.009198     -0.040393
Li	      2.20417      2.04459      4.13932         0.001174      0.011030     -0.093394
Li	      4.19378      4.06885      4.18299         0.002082     -0.011297      0.029309
Li	      6.30085      4.07091      6.37760        -0.015888     -0.046476      0.068273
Li	      4.18482      4.14076      8.32413         0.050701      0.016935     -0.069634
Sc	      6.25966      4.17134     10.38817         0.081725     -0.210971     -0.192411
V	      4.20272      6.18226      6.33987         0.288472     -0.380287     -0.109722
Cr	      6.09122      4.19065      2.15018         0.037743      0.065187     -0.027907
Cr	      4.11716      0.07125      4.19322        -0.104909      0.013106     -0.042241
Cr	      8.29760      6.29309     10.45013         0.153592     -0.074414      0.067113
Fe	      6.30142      8.26337      6.33960         0.057675      0.284367     -0.117643
Co	      8.27939      2.11812      6.31104        -0.144579     -0.039317      0.058486
Co	      6.27255      6.27253      8.40677        -0.013164      0.019966     -0.277419
Ni	      4.26741      2.08924      6.30132         0.128040     -0.001133      0.108655
O	      2.10359      1.91529      1.95260         0.044529     -0.026387     -0.030472
O	      4.31874      4.13360      2.13799        -0.080913     -0.008077      0.020743
O	      4.15849      2.00292      4.29127        -0.029224     -0.073647     -0.118356
O	      6.32475      4.19588      4.03648        -0.001066     -0.000318     -0.010298
O	      6.33714      2.09839      6.32139         0.160001     -0.013531     -0.038657
O	      8.35823      4.07048      6.19300        -0.001190     -0.102369     -0.006167
O	      2.06374      4.24958      4.32632        -0.095543      0.009158     -0.103277
O	      4.06549      6.24300      4.30263        -0.097702      0.011504      0.186841
O	      4.11595      4.19190      6.29896         0.004370      0.366871      0.004917
O	      6.27548      6.29227      6.46109        -0.227088     -0.178119      0.108121
O	      6.25165      4.34353      8.39217        -0.059749     -0.683028      0.157152
O	      8.20780      6.27379      8.46036         0.771105      0.160604      0.020490
O	      2.08509      6.27024      6.28350         0.084385      0.130402      0.026339
O	      4.12659      8.19605      6.28543         0.001637      0.011478     -0.003393
O	      4.22955      6.24495      8.38657        -0.822165      0.099650      0.049128
O	      6.27717      8.40677      8.30042        -0.014347      0.433014      0.115637
O	      6.25204      6.28201     10.35143        -0.047883      0.037374      0.038151
O	      8.32703      8.33033     10.63460         0.015804      0.019446      0.002245
