# total energy = -222.27706923 eV
 
CRYSTAL
PRIMVEC
0.031351 6.285310 6.127082 
6.249530 0.019923 6.138249 
4.175844 4.207266 0.003933 
PRIMCOORD
36 1
Li	      4.26037     10.42830      6.15186        -0.002981      0.044851     -0.053134
Li	      6.17947      4.21896      2.21279        -0.132177      0.142334      0.042410
Li	      8.18425      4.28005      4.06096        -0.042186      0.007946      0.098661
Li	      6.22533      2.25919      4.06280        -0.010034      0.082330      0.148628
Li	      4.24838      6.23268      2.14469         0.106167     -0.090707      0.044721
Li	      6.29286      6.20615      4.03862        -0.106511     -0.021060      0.033912
Li	      4.25168      4.23307      4.04539         0.021243      0.034890      0.051895
Li	      4.24874      8.32126      4.09917         0.027361     -0.042029     -0.015778
Li	      2.02547      4.24742      6.05317         0.047401     -0.025639     -0.141075
Sc	      8.32057      8.40887     12.18579        -0.342782      0.091421     -0.000821
V	      6.23171      6.37909      8.32950        -0.036829     -0.499632     -1.078712
Cr	      2.11496      4.20236      2.10843         0.030396      0.000098     -0.262266
Cr	      4.20700      2.13203      6.03515        -0.023394     -0.042471      0.036762
Cr	      4.21830      6.28372      6.08030        -0.077969     -0.271738     -0.221867
Fe	      4.17707      2.20457      2.15155        -0.480431      0.299618      0.033571
Cu	      6.25638      4.20630      6.05960         0.149250     -0.196839     -0.072983
Cu	      2.19239      6.25233      4.11078        -0.311143      0.048541      0.029270
Ni	      8.35420      8.42339      8.23881         0.218432     -0.087613     -0.090939
O	      6.25866      4.22349      4.15728         0.055845     -0.042291     -0.519744
O	      2.14298      2.19856      2.02846        -0.044793     -0.019054      0.202902
O	      4.11017      4.13071      2.01551         0.104094      0.113838     -0.002465
O	      4.17038      2.09650      4.09474         0.055080     -0.079106     -0.332268
O	      6.17352      2.16717      6.14120         0.203969     -0.321668      0.054225
O	      8.30671      4.29861      6.17680         0.379556     -0.064268      0.004347
O	      2.09805      4.31067      4.00100        -0.102396     -0.209585      0.369722
O	      4.14162      6.28256      4.18179         0.667163      0.108320     -0.360817
O	      4.27442      4.17904      6.20853        -0.547368      0.225307      0.017192
O	      6.29683      6.25797      6.23748        -0.078572      0.392417      0.318661
O	      6.31313      4.31243      8.12029        -0.041629      0.895966      0.339258
O	      8.28351      6.29295      8.10745        -0.731027      0.029882     -0.106117
O	      2.20574      6.29321      6.07018        -0.041112     -0.073575      0.724089
O	      4.16237      8.28146      6.21422         0.204999      0.073961     -0.026795
O	      4.27564      6.30982      8.11992         0.896062      0.034353      0.438156
O	      6.24346      8.28497      8.14722         0.130452     -0.750388      0.241857
O	      6.31404      6.26347     10.07091        -0.122667      0.008659      0.230410
O	      8.36987      8.31468     10.19066        -0.021467      0.202931     -0.174868
