# total energy = -224.12027806 eV
 
CRYSTAL
PRIMVEC
0.023221 6.275209 6.368074 
6.228870 0.018633 6.372789 
4.143618 4.177505 0.021739 
PRIMCOORD
36 1
Li	      6.17905      0.09801      6.35168         0.048622     -0.036095     -0.011125
Li	      8.23581      2.17274      6.34027        -0.001281     -0.021926      0.011966
Li	      6.23324      2.03808      4.38574         0.012955     -0.024396      0.029387
Li	      8.34153      4.23619      8.36283         0.034001     -0.072600     -0.054274
Li	      4.13078      4.21707      4.24382        -0.051032      0.022527     -0.016299
Li	     10.30050      8.36293     10.66070         0.089287      0.011627      0.038975
Li	      8.37050      6.42535     10.57203        -0.024718      0.014033     -0.003149
Li	      4.15992      6.30321      6.32327        -0.001907      0.064863     -0.023819
Li	      8.32206      8.33655      8.55018        -0.007436     -0.007465      0.005729
Sc	      6.16946      6.26639      4.30187        -0.066949      0.131918     -0.023445
V	      2.10182      4.37575      6.30056        -0.156558     -0.052676     -0.274296
Cr	      6.24570     10.41476      8.54251         0.006255      0.051470      0.031168
Cr	      8.36923     10.34381     10.67244        -0.065854     -0.127078     -0.018476
Cr	     10.33277      6.29256      8.50905         0.021166     -0.016510      0.106815
Fe	      6.32778      6.17318      8.55239        -0.092732      0.092875      0.028126
Ni	      4.15830      2.13480      2.14158        -0.088869      0.037494     -0.007051
Ni	      4.18755      2.09330      6.36166        -0.028860     -0.010153     -0.040572
Ni	      6.19541      4.13580      6.38898        -0.060348      0.071326     -0.072373
O	      2.04427      2.00087      2.15143        -0.101148     -0.010267     -0.026249
O	      4.23012      4.21752      2.15421         0.009699      0.088351     -0.011478
O	      4.13098      1.96132      4.22648         0.042378     -0.023002      0.074078
O	      6.28853      4.15859      4.21754         0.004270     -0.012106     -0.054197
O	      6.18988      2.13672      6.48012         0.177172     -0.131076     -0.008752
O	      8.27636      4.22625      6.21079         0.043382     -0.150007     -0.092415
O	      2.09183      4.18108      4.49862         0.014491      0.020231      0.154072
O	      4.16044      6.29379      4.16692         0.023220     -0.011324     -0.047697
O	      3.98890      4.15593      6.38048         0.000311      0.113011      0.019364
O	      6.22740      6.29890      6.44532        -0.075428      0.046931      0.004187
O	      6.24914      4.19378      8.42270        -0.008914     -0.113978      0.098179
O	      8.29604      6.25395      8.49574         0.086453      0.023505      0.042432
O	      2.15090      6.16779      6.46612        -0.008194      0.065559      0.056069
O	      4.41927      8.35867      6.46493         0.078473      0.028611     -0.074868
O	      4.16365      6.31904      8.64024         0.032429     -0.117300      0.094642
O	      6.24627      8.37538      8.36182         0.092465     -0.011304     -0.023168
O	      6.17008      6.27808     10.49734         0.017966     -0.021402      0.076202
O	      8.31612      8.53307     10.66740         0.005232      0.086334      0.012314
