# total energy = -229.16351545 eV
 
CRYSTAL
PRIMVEC
-0.013978 6.426108 6.134714 
6.435736 0.019486 6.099932 
4.293922 4.265083 0.009244 
PRIMCOORD
36 1
Li	     10.46358      4.25210      6.06601         0.014517     -0.013541      0.042756
Li	      8.61951      2.38736      6.10900        -0.019897     -0.030291      0.004221
Li	      8.68891      4.22334      4.28280        -0.001044     -0.030965     -0.111253
Li	      2.22387      4.19855      1.92122         0.042238     -0.033710      0.073725
Li	      8.53758      6.13486      6.16130        -0.009263      0.032716      0.054240
Li	      6.68178      4.31377      6.08031         0.004134     -0.010700      0.030809
Li	      6.45967      4.52047     10.27261         0.096437      0.155446      0.018523
Li	      6.37352      8.49670      6.08202        -0.016150      0.022664     -0.022125
Li	      6.40639      6.46829      8.14376        -0.029020      0.015304     -0.015371
Sc	      2.11754      6.41398      8.06252        -0.069888      0.029791     -0.131370
V	      4.44946      4.16985      8.11123         0.263121     -0.014383     -0.062381
Cr	      4.30223      8.55109      8.15085        -0.045145     -0.045278     -0.051760
Cr	      6.45500      6.42753      4.12500        -0.041212     -0.027465     -0.029569
Cr	      4.25280      4.26461      4.13743         0.024529     -0.039968     -0.007784
Fe	      6.45683      2.01310      4.23517        -0.033704      0.189369     -0.113410
Fe	      4.32384      6.55082      6.07866         0.018677     -0.131355      0.044845
Co	      8.51332      6.41825     10.20126        -0.324484     -0.418722      0.148064
Cu	      6.51354      2.15631      7.99890         0.027504      0.079437     -0.024988
O	      8.55970      4.27833      6.15521         0.020742      0.001291      0.003925
O	      2.26931      2.08103      2.10796         0.089909     -0.029809      0.028813
O	      4.33316      4.14645      2.12571        -0.020347     -0.145002      0.017719
O	      4.24885      2.23767      4.06877        -0.000383      0.015682      0.003974
O	      6.28491      4.31800      4.08489        -0.036600      0.009988      0.010767
O	      6.46118      2.13936      6.10198        -0.036364      0.011883      0.100749
O	      2.26165      4.20011      4.05446        -0.027861     -0.133921     -0.043734
O	      4.35571      6.30350      3.99861         0.209285     -0.013939      0.002279
O	      4.20806      4.38583      6.28108        -0.017508     -0.011710     -0.054873
O	      6.28461      6.42363      6.06872         0.041987     -0.001911     -0.037067
O	      6.18031      4.33263      8.19785        -0.192840     -0.010681      0.020842
O	      8.51692      6.64133      8.20252         0.131655      0.307899     -0.526339
O	      2.29784      6.41555      6.02803         0.260342      0.118739      0.631824
O	      4.30704      8.49636      6.18274        -0.063616      0.056469      0.003994
O	      4.24334      6.43315      8.12117        -0.049473     -0.013415      0.018938
O	      6.34992      8.59783      8.26979        -0.020185     -0.010835     -0.001529
O	      6.47595      6.52814     10.21628        -0.171374     -0.089329     -0.056846
O	      8.43685      8.61774      9.97401        -0.018717      0.210254      0.029392
