# total energy = -103.80811712 eV
 
CRYSTAL
PRIMVEC
2.103584 4.222929 2.074304 
4.148768 -2.089465 -2.059909 
0.003372 4.227762 -4.161511 
PRIMCOORD
16 1
Li	      2.13024      4.21365      2.01445         0.009416      0.002765     -0.015837
Li	      2.11953      2.12570      0.02080         0.010631      0.004161      0.004314
Li	      4.14121      4.20842      0.05658        -0.008153     -0.017172      0.034497
Li	      2.07030      2.15786     -4.17183         0.000328     -0.003012     -0.019294
Ti	      2.09879      4.15801     -2.03790        -0.001494     -0.139113      0.031172
Ti	      4.15071      4.36612     -4.27156        -0.036516      0.251505     -0.174724
Ni	      4.16488      2.12736     -2.06119        -0.039801     -0.013267      0.036191
Ni	      4.13279      0.01934     -4.10427         0.017108      0.036059      0.060066
O	      2.06581      2.25335     -2.05614         0.008947      0.209918      0.000836
O	      4.11398      4.22116     -2.14681        -0.155812      0.094187     -0.028323
O	      2.20863      4.21473     -4.05273         0.120672      0.003764      0.050533
O	      4.19131      1.99668     -0.01041        -0.012248     -0.303356      0.105671
O	      4.12134      0.04280     -2.01185         0.002679     -0.087536      0.275139
O	      2.10628      4.27914     -0.08424         0.085472     -0.112941     -0.138737
O	      4.26047      2.15889     -4.14252         0.087493      0.110181     -0.101732
O	      1.97743      6.23086     -2.04648        -0.088723     -0.036141     -0.119772
