# total energy = -228.05953837 eV
 
CRYSTAL
PRIMVEC
0.030127 6.251348 6.229759 
6.410173 0.008583 6.251018 
4.285206 4.193546 -0.006033 
PRIMCOORD
36 1
Li	      4.24286      4.03981      0.14748         0.054634      0.015435     -0.020854
Li	      6.41317      4.19454      2.16715         0.019004     -0.115155     -0.021134
Li	      4.26056      2.12179      2.08894         0.100861     -0.020437      0.079571
Li	      8.37380      4.24828      4.06636        -0.061865      0.007585     -0.120267
Li	      6.41178      8.43602     10.24106         0.004140     -0.077332     -0.134900
Li	      2.21512      4.06830      2.09045         0.014286      0.190405      0.166168
Li	      2.24113      2.01244      3.96694         0.059243      0.024042      0.065128
Li	      4.33108      8.35060      4.19482         0.040029      0.071771     -0.093803
Li	      8.51174      8.44998      8.35725        -0.094050     -0.051909      0.085284
Sc	      4.29849      2.04745      6.17125        -0.253817      0.147093     -0.000387
V	      8.45472      6.32968     10.35967         0.083937     -0.441664      0.145604
Cr	      0.09591      2.10824      2.11110        -0.309804      0.034927      0.180061
Cr	      4.30587      4.17622      4.09790        -0.090525     -0.064079      0.013464
Cr	      4.30077      6.31717      6.23794         0.035250     -0.271454      0.120485
Fe	      6.50737      4.12945      6.20092        -0.373194      0.358359     -0.025859
Fe	      6.26386      6.29545      8.36230         0.172597      0.180011      0.171639
Co	      2.16701      2.11603      0.04355         0.299380     -0.274845     -0.306248
Ni	      6.39033      8.40645      6.29238        -0.061669     -0.091920     -0.048243
O	      2.04578      2.11580      2.00548         0.123452     -0.042035     -0.529324
O	      4.30827      4.31274      2.13846        -0.008751      0.031862     -0.023456
O	      4.24792      2.17479      4.18757        -0.013139     -0.016639      0.137634
O	      6.33299      4.17750      4.24439        -0.000534      0.020377     -0.026386
O	      6.36200      2.13348      6.35042         0.589851     -0.117429     -0.019255
O	      8.49341      4.20242      6.16977         0.245748     -0.569624      0.061718
O	      2.26916      4.39035      4.21821         0.082842      0.046711     -0.220779
O	      4.22409      6.22825      4.15867         0.116683      0.049702     -0.053920
O	      4.30552      4.22244      6.16839         0.301546      0.031069     -0.041339
O	      6.39207      6.24654      6.30813         0.022766     -0.361140     -0.102636
O	      6.43946      4.21324      8.23857         0.044400     -0.187929      0.006235
O	      8.65002      6.30493      8.47797         0.109287     -0.021282     -0.473036
O	      2.28473      6.27952      6.08577        -0.009571      0.752871      0.186688
O	      4.35384      8.27195      6.21578        -0.920034      0.234718      0.115040
O	      4.34073      6.23538      8.25411        -0.167686      0.032787     -0.104750
O	      6.48587      8.20741      8.28831        -0.074140     -0.020081      0.315138
O	      6.66325      6.22734     10.35495        -0.152656      0.023029      0.027124
O	      8.62163      8.14109     10.51238         0.071497      0.492200      0.489593
