# total energy = -231.78784927 eV
 
CRYSTAL
PRIMVEC
-0.007748 6.251025 6.186722 
6.385505 -0.016517 6.194980 
4.264346 4.179922 -0.018146 
PRIMCOORD
36 1
Li	      0.08178      6.21645      6.22452        -0.013845      0.003516     -0.148789
Li	      2.02443      6.29621      8.09404         0.141829     -0.181440     -0.021886
Li	      8.56745      4.16221      4.18593         0.200669     -0.017333     -0.208603
Li	      4.29096      6.15329      2.06441        -0.152377      0.148212     -0.071348
Li	      8.56977      6.16802      6.19612        -0.014699      0.016069      0.105902
Li	      4.36628      8.27010      4.22395        -0.035728      0.131603     -0.122036
Li	      2.11691      6.24333      4.19457        -0.223365      0.092635     -0.091148
Li	      1.95392      4.38531      6.11820        -0.077788     -0.001743      0.207768
Li	      4.14367      6.33119      6.13923         0.051554      0.021890      0.062700
Sc	      4.24188      4.18318      8.22510        -0.198126      0.255934      0.117358
V	      6.37430      6.27086      8.21788         0.204933      0.097988      0.073711
Cr	      6.34699      2.07876      4.11814         0.129020     -0.673946      0.011234
Cr	      6.41245      6.24177      4.14142         0.051115     -0.101431      0.359781
Cr	      6.41822      4.12463      6.21390        -0.227960      0.184017      0.077434
Fe	      2.18043      8.24101      6.12447         0.008413     -0.098268     -0.093098
Fe	      4.19382      4.24764      4.15928         0.318773      0.032546      0.311217
Co	      4.23846      8.33762      8.21021         0.352787     -0.354540     -0.040870
Co	      2.18830      4.20425      2.05157        -0.204597     -0.029968      0.124770
O	      2.28409      2.06478      2.13229         0.117052      0.773903     -0.147692
O	      4.26424      4.02162      2.13207        -1.095413      0.235787     -0.136760
O	      4.26617      2.11972      4.01776        -0.084685      0.021636     -0.049969
O	      6.32824      4.15143      4.21138        -0.053210      0.263005     -0.185724
O	      6.42116      2.11363      6.11704         0.072361      0.025563      0.159652
O	      8.40424      4.06096      6.20949         0.215030      0.186496      1.129162
O	      2.20818      4.06116      4.15644        -0.099749      0.130745     -0.936956
O	      4.42909      6.19335      4.08038         0.026334     -0.050892     -0.124578
O	      4.37261      4.14796      6.17593        -0.012145     -0.064739     -0.226171
O	      6.43306      6.17068      6.24628         0.106693     -0.383718     -1.249752
O	      6.34190      4.24628      8.24528         0.717771     -0.683124     -0.231445
O	      8.39412      6.28012      8.23536         0.139812     -0.991385     -0.048397
O	      2.10353      6.34361      6.15348         0.002645      0.004250      0.077737
O	      4.15420      8.38834      6.27502         0.116851     -0.048916      0.158027
O	      4.38688      6.34553      8.20986        -0.318751     -0.099362     -0.035673
O	      6.30945      8.29670      8.24761        -0.165090      0.682727      0.119276
O	      6.35979      6.32955     10.09912        -0.052354      0.357685      1.027484
O	      8.35481      8.35904     10.28900         0.056242      0.114599      0.047682
