# total energy = -227.82916168 eV
 
CRYSTAL
PRIMVEC
0.006233 6.274057 6.262112 
6.334167 0.010607 6.257963 
4.235083 4.192204 -0.005192 
PRIMCOORD
36 1
Li	      8.46496      8.36748     12.43735        -0.032048      0.022083     -0.027122
Li	      4.22102      2.06140      2.12823        -0.000351      0.008208      0.071522
Li	      8.42386     10.40598     10.38883        -0.082470     -0.060747      0.012903
Li	      6.40585      8.41803     10.42949         0.048877      0.056218     -0.007640
Li	      8.41040      4.20110      8.36362         0.056766     -0.047302     -0.008656
Li	      4.25249      2.11356      6.24665         0.065902     -0.004761     -0.051360
Li	      6.30017      4.19858      6.26315        -0.065647     -0.022785     -0.031922
Li	     10.46361      8.36210     10.40883        -0.060915     -0.036552     -0.014231
Li	      4.24764      6.25379      6.28038         0.029431     -0.071210      0.018495
Sc	      2.15002      4.19420      6.29466         0.069298     -0.050354      0.041899
V	     10.39064      4.19966      6.08957        -0.426190      0.256240      0.248890
Cr	      2.16449      6.27178      8.34933        -0.070737      0.004223      0.081922
Cr	      6.32510      2.14212      8.33146         0.072657      0.036585     -0.163402
Cr	      4.25073      4.16536      4.19129         0.095684     -0.099052     -0.014477
Fe	      2.19381      2.07500      4.18363        -0.076296     -0.024271      0.070625
Fe	      6.30738      6.16949      8.29119         0.014851      0.053942      0.071256
Cu	      8.48940      8.39014      8.41115         0.025869      0.014273     -0.183643
Ni	      8.48816      6.37517     10.44764         0.018116     -0.107880      0.096770
O	      8.47039      8.35342     10.36371         0.011862      0.110624      0.212114
O	      2.01925      2.00912      2.15496         0.022610     -0.009784     -0.037231
O	      4.33463      4.29033      2.06638         0.006559      0.006646      0.053256
O	      4.11782      2.18118      4.17537         0.080099      0.011967      0.000902
O	      6.28367      4.24366      4.10546        -0.045770     -0.055161     -0.018177
O	      6.34092      1.89197      6.34016         0.019435     -0.011622      0.039473
O	      8.65308      4.19069      6.24709         0.282420      0.001945     -0.075660
O	      2.21855      4.14283      4.18742        -0.031858      0.093131      0.028136
O	      4.27349      6.22236      4.09515         0.057100      0.081490      0.066163
O	      4.21711      4.20529      6.20112        -0.025527     -0.004490     -0.078689
O	      6.31205      6.29669      6.29368        -0.039778      0.056376     -0.102551
O	      6.44181      4.21821      8.31255         0.167357     -0.065285     -0.009133
O	      8.43377      6.31025      8.38396         0.041620      0.144702     -0.040010
O	      2.03771      6.28670      6.31913         0.061522      0.034472      0.046053
O	      4.25988      8.64387      6.27350         0.053466     -0.134584     -0.019280
O	      4.24962      6.27117      8.34659        -0.122726     -0.111452     -0.002801
O	      6.27061      8.35767      8.34416        -0.225518     -0.053313     -0.021666
O	      6.36582      6.31303     10.55965         0.004328     -0.022517     -0.252730
