# total energy = -226.69117937 eV
 
CRYSTAL
PRIMVEC
-0.003376 6.476255 6.232970 
6.202162 -0.016556 6.246944 
4.116417 4.308341 0.007355 
PRIMCOORD
36 1
Li	      2.15753      6.42396      8.35437         0.007269     -0.096921      0.013224
Li	      4.15744      8.51986      8.31864         0.031257     -0.073233     -0.025091
Li	      4.13905      6.48044     10.21491        -0.003144     -0.013458      0.043191
Li	     10.29794      6.48826      8.38502         0.002526      0.023182     -0.143277
Li	      4.10771      4.27810      4.16253        -0.025614     -0.085891     -0.052339
Li	      8.19316      6.49405      6.26965         0.018188     -0.019142      0.070289
Li	      6.18651      4.30376     10.33769         0.006661      0.047053     -0.032735
Li	      4.12288      4.37799      8.37008        -0.022860      0.061512      0.064819
Li	      6.15411      6.45320      8.35676         0.038228      0.015532      0.028050
Sc	      6.06176      4.27153      6.28038         0.205036     -0.169817      0.292974
V	      4.12830      4.31684      0.05735        -0.244746      0.036593      0.215550
Cr	      2.09613      8.63346      6.25144         0.001815      0.269033      0.079272
Cr	      2.02396      4.32239      2.12498         0.243678      0.111031     -0.051171
Cr	      2.10313      2.11719      4.10622         0.151440      0.005654     -0.113573
Fe	      6.07598      8.66724     10.24102         0.184464     -0.016704      0.099603
Fe	      8.34808      6.49000     10.34275        -0.434420      0.017510     -0.263238
Cu	      6.20188      8.54112      6.36924         0.035973      0.021273     -0.062618
Cu	      4.14622      6.37537      6.31707        -0.055088      0.068965     -0.069015
O	      4.15030      6.47318      8.18981         0.006333     -0.036969     -0.591779
O	      2.07143      2.31664      2.07998        -0.048009     -0.274324      0.008603
O	      4.07757      4.40825      1.87169         0.108010      0.076023     -0.032831
O	      4.12793      2.13422      4.14124        -0.212954     -0.077671      0.038069
O	      6.18020      4.30908      4.16045         0.041753      0.137616     -0.032020
O	      6.26392      2.11912      6.18023        -0.011408      0.011706     -0.055791
O	      8.29862      4.19225      6.33224         0.041544     -0.081708     -0.180082
O	      2.08122      4.25315      4.13906        -0.016798      0.011317      0.306629
O	      4.12261      6.45281      4.28876         0.131762     -0.062164      0.523467
O	      4.04226      4.23770      6.29875        -0.221814     -0.013891     -0.024306
O	      6.16889      6.35388      6.09444        -0.229497     -0.044218      0.185954
O	      6.27925      4.29391      8.31331        -0.303093     -0.041361     -0.111191
O	      8.25689      6.30024      8.44476         0.046813      0.175184      0.136632
O	      2.02491      6.63526      6.19368         0.352845      0.185513      0.041997
O	      4.13784      8.85035      6.21584         0.032416     -0.111569     -0.002243
O	      6.18567      8.61893      8.35264        -0.021473      0.036763     -0.257531
O	      6.24093      6.58435     10.58410         0.041800     -0.095515      0.004479
O	      8.19649      8.53496     10.49202         0.121109      0.003096     -0.051970
