# total energy = -227.72397062 eV
 
CRYSTAL
PRIMVEC
-0.005524 6.369807 6.285529 
6.274946 0.022931 6.257337 
4.192740 4.236636 0.005813 
PRIMCOORD
36 1
Li	     10.42996     10.53493     12.45284         0.007626      0.007146      0.003765
Li	      8.43043      8.53912     12.43785        -0.035476      0.018046      0.067989
Li	      2.16192      6.31894      8.20384         0.011169     -0.014177     -0.131453
Li	      8.45900     10.45841     10.50954         0.009676     -0.039020     -0.009169
Li	      8.35736      6.24962      6.29797         0.031081     -0.022369     -0.003343
Li	     10.34600      8.59222     10.62555        -0.063662      0.085423     -0.079130
Li	      6.18385      8.56451      6.30797         0.008829      0.046220      0.026794
Li	      4.13800      6.46470      6.32869         0.007402      0.003285      0.020007
Li	      8.32912      8.60580      8.45595         0.015638      0.047563     -0.019307
Sc	      4.13023      8.45103      8.19419        -0.002960     -0.034741      0.062468
V	      4.12359      4.24388      4.30823         0.119443     -0.053005      0.140856
Cr	      6.29378      8.49452     10.47346        -0.075151      0.100490      0.034858
Cr	      6.35597      4.27719      6.27174        -0.080289     -0.031046     -0.064285
Cr	      6.27772      6.37304      8.34230         0.009241      0.030719     -0.055998
Fe	      6.27104      2.11713      8.25421         0.037465      0.029523      0.011180
Fe	      2.07351      6.47798      4.36015        -0.007891     -0.042994     -0.220211
Ni	      8.37951      4.26975      8.28106         0.003131     -0.033815      0.038540
Ni	      6.27028      6.35865      4.25760         0.047451     -0.062211      0.048042
O	      2.01922      2.17008      2.21557         0.035934     -0.080032     -0.118064
O	      4.19735      4.29784      2.21767         0.074456     -0.031111      0.020268
O	      4.21974      2.35016      4.14513         0.065225      0.011482      0.081681
O	      6.15291      4.20556      4.23491         0.022171     -0.068479     -0.000675
O	      6.24349      2.23675      6.27620        -0.005659      0.008786     -0.102418
O	      8.29759      4.27067      6.25986         0.040405     -0.059172     -0.145698
O	      2.29647      4.24118      4.18103        -0.071283      0.004897      0.081351
O	      4.19295      6.18339      4.10266        -0.081632     -0.008343      0.009568
O	      4.25529      4.28421      6.06814        -0.003550      0.010100     -0.033635
O	      6.31657      6.27515      6.30226         0.002292      0.010074      0.079649
O	      6.29737      4.25628      8.29237        -0.100425      0.029769      0.050350
O	      8.40272      6.33437      8.46897        -0.051535      0.065746     -0.040709
O	      2.11079      6.33753      6.19532        -0.033225     -0.000538      0.171364
O	      4.19164      8.50109      6.26650        -0.016189      0.021460      0.027944
O	      4.28253      6.41925      8.38284         0.009346     -0.048493      0.055128
O	      6.25463      8.39587      8.45603         0.029442      0.051742      0.014324
O	      6.32400      6.47558     10.37344        -0.024134     -0.051232      0.021832
O	      8.26754      8.44924     10.45994         0.065637      0.098308     -0.043862
