# total energy = -230.39341635 eV
 
CRYSTAL
PRIMVEC
0.034652 6.285230 6.467409 
6.297061 -0.027529 6.530375 
4.174763 4.207694 0.004703 
PRIMCOORD
36 1
Li	      4.36215     10.24923      6.57188        -0.002616      0.029373      0.022057
Li	      2.37011      8.22420      6.62499        -0.072914     -0.021826      0.010661
Li	      1.98793      6.35283      8.34312        -0.061313      0.021220     -0.003953
Li	      4.19430      8.43325      8.36427         0.037113      0.008285      0.134503
Li	      4.25743      6.19799      2.16067         0.042603     -0.036167      0.023981
Li	      4.13782      4.25033      4.10655         0.029007     -0.016356     -0.046022
Li	      4.21655      8.36098      4.67424        -0.003663     -0.023191     -0.074218
Li	      6.11492      8.50561      6.50244         0.110208     -0.046119     -0.024188
Li	      4.08981      6.46851      6.47680         0.066625     -0.094107     -0.007875
Sc	      6.11138      6.35521      4.26000        -0.009077     -0.018899      0.025281
V	      6.27463      2.07148      4.37536        -0.037458      0.015794     -0.029471
Cr	      6.27386      4.21136      6.50667        -0.096148      0.091424     -0.275927
Cr	      2.15824      6.24039      4.44604        -0.028245      0.013331      0.044390
Cr	      8.42646      8.37422      8.70301        -0.041139      0.121237      0.018116
Fe	      4.32312      6.23261     10.85091         0.000023     -0.010295      0.155010
Fe	      2.25437      4.12254      2.11301        -0.113290      0.063022     -0.058557
Fe	      8.34617      6.32836      6.53415        -0.064505      0.037909     -0.069639
Cu	      6.26827      6.27178      8.64187        -0.035837      0.141680      0.019592
O	      4.24728      8.35062      6.51440        -0.031250     -0.000682     -0.016073
O	      2.07506      2.17848      2.21189        -0.006800     -0.082758     -0.020538
O	      4.11668      4.23570      2.11173         0.044604      0.016833     -0.039993
O	      4.26645      2.00777      4.43308         0.005683      0.018368      0.010256
O	      6.37200      4.13849      4.44759         0.007002      0.002618      0.023350
O	      6.22180      2.20870      6.29113        -0.006149      0.036483      0.158280
O	      8.29508      4.28678      6.50990        -0.001765     -0.034875      0.014150
O	      2.08736      4.23755      4.16615        -0.030136      0.022604      0.021001
O	      4.13234      6.26215      4.29093        -0.025515      0.043188     -0.019065
O	      4.26459      4.08752      6.69494         0.029851      0.053240      0.037525
O	      6.37720      6.22416      6.37243        -0.012595     -0.001988     -0.179409
O	      6.27690      4.25494      8.49006         0.019865     -0.261652      0.184695
O	      8.30248      6.30046      8.66070         0.192585     -0.007606      0.101729
O	      2.14358      6.26369      6.35732         0.015965     -0.000277     -0.096476
O	      4.32378      6.15989      8.87941        -0.154076     -0.084548     -0.133694
O	      6.38272      8.34704      8.95328         0.101859      0.089694     -0.065419
O	      6.33006      6.40389     10.98414         0.079213     -0.020557      0.182530
O	      8.34872      8.35064     10.77517         0.052288     -0.064405     -0.026591
