# total energy = -231.70868302 eV
 
CRYSTAL
PRIMVEC
0.009452 6.267412 6.284833 
6.361229 0.016210 6.277966 
4.260818 4.193663 -0.009215 
PRIMCOORD
36 1
Li	      8.43285      8.44523     12.42304         0.016032     -0.002684      0.002607
Li	      6.54940      8.33475     10.45148        -0.009627      0.008971     -0.065650
Li	      8.29383      4.21173      8.45181         0.002187     -0.007451      0.059226
Li	      4.17996      4.22028      4.15075        -0.054111     -0.001665     -0.005302
Li	      6.44305      4.11308      6.42734         0.051240      0.003335     -0.040892
Li	      6.30761      4.23178     10.26482         0.007065     -0.039902      0.102838
Li	      8.42237      6.39865     10.37411        -0.033837      0.050922      0.006017
Li	      8.69350      8.35926      8.52905         0.000316      0.008618     -0.036175
Li	      6.41808      6.07122      8.51911        -0.014549      0.020991      0.004448
Sc	      4.26113      6.22420      6.20261        -0.023596      0.036998      0.056712
V	      8.54773      6.32121      6.40042        -0.094232      0.019215     -0.199871
Cr	      8.53309     10.39107     10.45612         0.022195      0.031272     -0.052176
Cr	      2.11660      2.12861      4.16853         0.086181     -0.051928      0.031148
Cr	      2.13502      4.17396      6.24908        -0.131627      0.164643      0.079511
Fe	      6.35798      6.31549     12.46274         0.161123     -0.199550      0.058157
Fe	      6.35004      4.18233      2.15296         0.134300      0.011823     -0.095707
Fe	      4.26823      2.15593      2.13641        -0.047544     -0.069346      0.076526
Ni	      6.37506      2.20959      8.40957        -0.039879     -0.164848      0.031370
O	      2.18699      2.05235      2.14643         0.053584      0.043141      0.003456
O	      4.33298      4.18166      2.00941        -0.077314      0.078729      0.051729
O	      4.16538      2.05534      4.22273        -0.051033      0.000245      0.001207
O	      6.47502      4.27292      4.10583         0.003522      0.013974      0.130934
O	      6.23023      2.05463      6.29755         0.071829      0.093880     -0.070137
O	      8.58351      4.31562      6.18216        -0.050835     -0.035887      0.038785
O	      2.14217      4.09975      4.28738        -0.023004      0.057113     -0.064024
O	      4.36312      6.25112      4.19746        -0.026937     -0.034930      0.037995
O	      4.15692      4.12530      6.25715        -0.075205     -0.083648      0.002089
O	      6.42856      6.34383      6.19927         0.052851      0.039929     -0.010592
O	      6.37448      4.16065      8.33394         0.000727      0.083416     -0.015755
O	      8.47890      6.28451      8.16167        -0.041057     -0.035582      0.237701
O	      2.13101      6.20885      6.32595         0.026081      0.042832     -0.019554
O	      4.34487      8.37012      6.39053        -0.018518      0.018036     -0.086328
O	      4.18935      6.35365      8.38968         0.033772     -0.011102     -0.012500
O	      6.26764      8.45309      8.31616         0.064074     -0.069875     -0.053180
O	      6.30418      6.27708     10.55129        -0.012521      0.029985     -0.181154
O	      8.48887      8.46151     10.48331         0.038349     -0.049670     -0.003461
