# total energy = -235.44134261 eV
 
CRYSTAL
PRIMVEC
0.029532 6.336781 6.285615 
6.309500 0.035092 6.279706 
4.223315 4.237231 0.006877 
PRIMCOORD
36 1
Li	      6.17782      0.11881      6.20839        -0.006164     -0.003035     -0.009548
Li	      4.27184      0.15007      4.30904         0.051354      0.041583     -0.063596
Li	      6.23701      2.08568      4.26693         0.009017      0.017209      0.025086
Li	      8.43616      4.26636      8.29554         0.052420     -0.008250      0.004120
Li	      2.17708      2.13233      4.24314        -0.005860     -0.010125      0.003161
Li	      8.46689      6.18810      6.22558        -0.011835      0.060026      0.031690
Li	      6.40431      4.29440      6.25622        -0.032359      0.006404     -0.031680
Li	      6.36226      4.31320     10.44059         0.016638     -0.004850      0.000462
Li	      6.32572      8.41524      6.25393         0.041349      0.004868     -0.004844
Sc	      8.38006      2.32596      6.19363        -0.063431      0.003868     -0.001660
V	      4.23720      4.15343      4.28695         0.007338     -0.002929     -0.076760
Cr	      4.20904      2.16142      2.11216        -0.070102     -0.040680      0.025538
Cr	      6.33593      2.15465      8.35538         0.011618     -0.012897      0.009972
Cr	      6.37725      6.31381      8.36225         0.038214     -0.013892     -0.006677
Fe	      6.36605     10.53540      8.37979        -0.069346      0.065108     -0.010649
Fe	      2.04165      6.30365      4.26764         0.122684     -0.075501      0.019833
Fe	      4.34823      6.38665      6.18966        -0.103220      0.087461      0.139468
Fe	      8.42432      8.49536      8.40227        -0.006558     -0.061640     -0.086946
O	      2.10620      2.12258      2.07331        -0.000994      0.069015      0.000277
O	      4.20288      4.22553      2.20226        -0.063110     -0.000576     -0.002896
O	      4.18570      2.22857      4.11529         0.028961     -0.047278     -0.097984
O	      6.08218      4.25503      4.13537         0.039430     -0.003165      0.112374
O	      6.33838      2.11796      6.41899         0.044538      0.005806     -0.055782
O	      8.43140      4.26686      6.23992        -0.023539     -0.060334      0.032575
O	      2.33597      4.32672      4.19595        -0.080661     -0.060316      0.023560
O	      4.19743      6.30214      4.17883        -0.011288     -0.025298     -0.064214
O	      4.21046      4.33620      6.28699         0.005222      0.018175      0.145710
O	      6.26797      6.35165      6.36480         0.130728      0.021697      0.042120
O	      6.21036      4.22138      8.40207         0.054966      0.046205     -0.003207
O	      8.45896      6.45333      8.43710        -0.018708     -0.037121     -0.041763
O	      2.24877      6.37316      6.26836         0.010374      0.031791     -0.024307
O	      4.23305      8.39167      6.39125         0.005587      0.060341     -0.069811
O	      4.32758      6.38787      8.36966         0.028460     -0.058162     -0.005559
O	      6.31615      8.36401      8.37989         0.022869     -0.061189     -0.003696
O	      6.43681      6.30497     10.37327        -0.165734      0.041689      0.018191
O	      8.40142      8.41772     10.40189         0.011144      0.005992      0.027443
