# total energy = -243.49426190 eV
 
CRYSTAL
PRIMVEC
-0.001973 6.455840 6.309687 
6.320775 0.003959 6.304018 
4.229086 4.315203 -0.012283 
PRIMCOORD
36 1
Li	      4.21046      2.20482      2.21657        -0.016462     -0.039413     -0.012730
Li	      4.18479      6.38466      2.21133        -0.033689     -0.078429     -0.010171
Li	      2.14990      4.30657      2.18110        -0.002973      0.043252     -0.026954
Li	      2.20142      2.22641      4.14721        -0.000513      0.065543     -0.012850
Li	      4.15552      4.27137      4.15611        -0.013409     -0.030324     -0.002049
Li	      4.18113      2.28428      6.21336         0.013277      0.014504      0.008925
Li	      6.30734      4.27876      6.36466         0.005475      0.007858      0.041185
Li	      2.21378      6.31543      4.11865         0.013120      0.018694      0.006351
Li	      4.26996      4.29592      8.32785         0.015957      0.011713      0.003056
Sc	      4.27190      6.35538      6.20378        -0.022743      0.031948      0.014168
Mn	      6.32355      4.18944     10.37643         0.001680     -0.053726      0.007660
V	     10.53225      4.34960      6.33747         0.007750      0.008501      0.066645
V	      8.40184      2.27278      6.36277        -0.034126     -0.031806      0.027096
V	      6.33797      4.32572      2.16317        -0.035941      0.090157     -0.258921
V	      2.16231      4.28170      6.25027        -0.029639      0.060951     -0.001531
V	      6.49462      6.43572      8.40386         0.163042     -0.015667     -0.071803
Cr	      6.26769      2.17725      4.19433         0.005438     -0.111281      0.066363
Co	      4.15753      0.09944      4.19301        -0.117248     -0.138235      0.197909
O	      2.09438      2.09195      1.89461         0.046976     -0.045110      0.070943
O	      4.32546      4.32808      1.96408         0.029233     -0.006134      0.079280
O	      4.29162      2.11792      4.20922         0.005367      0.073531     -0.036358
O	      6.31483      4.18620      4.10013         0.182332     -0.071691      0.160745
O	      6.40610      2.07183      6.23183        -0.029739      0.038906     -0.074272
O	      8.48265      4.16967      6.32564        -0.066118      0.054966      0.105611
O	      2.10225      4.27895      4.31755         0.009687      0.049307     -0.040844
O	      4.22477      6.43396      4.20604         0.003742     -0.045677      0.017072
O	      4.11494      4.33890      6.32030         0.064316     -0.015371     -0.027630
O	      6.31968      6.53097      6.43615         0.015196      0.004853      0.012827
O	      6.27868      4.54661      8.36366        -0.009521      0.046200     -0.069750
O	      8.25968      6.51175      8.43553        -0.110539     -0.019252     -0.010151
O	      2.11914      6.48432      6.38957        -0.013292     -0.031295      0.006853
O	      4.19897      8.72203      6.28198         0.009019      0.004773      0.004640
O	      4.20515      6.47733      8.37674         0.032903      0.072884     -0.161156
O	      6.31773      8.56903      8.40901        -0.000823      0.064017      0.060181
O	      6.29544      6.55748     10.49378        -0.109516      0.002276     -0.059068
O	      8.34884      8.63745     10.73724         0.021782     -0.031425     -0.081273
