# total energy = -101.58719393 eV
 
CRYSTAL
PRIMVEC
0.010378 2.121915 2.164599 
5.709132 0.193586 -2.335741 
-1.879534 7.276119 -5.265960 
PRIMCOORD
16 1
Li	      0.15975      2.59365      1.71042         0.062715      0.038644     -0.010806
Li	      1.95730      2.75162     -0.61560        -0.109297      0.015317      0.008547
Li	      0.15837      4.37034     -0.07691         0.083096     -0.019071      0.032632
Li	      1.93222      4.48185     -2.36163        -0.038201     -0.028160      0.061866
Ti	     -0.06655      6.98737     -2.78219         0.046106     -0.057352      0.097445
Ti	      1.81575      7.28352     -5.25944        -0.004552      0.172494     -0.175533
Ni	      3.90436      2.88339     -2.79622        -0.147296     -0.111861     -0.459672
Ni	      3.78668      4.79644     -4.94653         0.008333      0.034782     -0.132530
O	      3.86931      4.89802     -2.95389         0.029089      0.220611      0.639926
O	      3.65395      1.89883      0.27403         0.027286     -0.181842      0.126239
O	      1.81904      7.28593     -3.14385        -0.226055      0.016913     -0.008599
O	      2.05877      2.54781     -2.55620        -0.481017     -0.093777     -0.017457
O	      3.72428      6.99896     -4.99197         0.040968      0.058953     -0.031327
O	     -0.10232      6.90821     -4.88973         0.118117     -0.062020      0.041823
O	      0.11638      5.03508     -3.02946        -0.000710      0.146260     -0.187604
O	      0.01620      2.36243     -0.18352         0.591417     -0.149890      0.015048
