# total energy = -241.43357898 eV
 
CRYSTAL
PRIMVEC
0.004992 6.363357 6.403984 
6.246266 0.032385 6.376088 
4.158679 4.218507 0.027314 
PRIMCOORD
36 1
Li	      8.26965      2.28126      6.40226         0.005721      0.003720      0.021798
Li	      8.31060      4.23172      4.37302        -0.062676      0.023235      0.086331
Li	      6.27316      2.20387      8.46060         0.060610      0.018326     -0.000461
Li	      2.07136      4.17615      2.10394         0.019554     -0.057903      0.024664
Li	      2.09073      2.12824      4.26096         0.035151     -0.046758      0.000337
Li	      6.31887      4.22500      6.40913         0.000019      0.002292     -0.009638
Li	      6.23300      8.44986      6.41320         0.013644      0.026727     -0.019388
Li	      4.18893      4.23632      8.50933         0.017344      0.018099     -0.028295
Li	      6.23376      6.38208      8.53343        -0.030372      0.005450     -0.042893
Sc	      8.26363      6.30667      6.55341         0.044086     -0.037441     -0.013899
Mn	      4.13499      2.11750      2.13359        -0.052243      0.028014     -0.014972
V	      2.06874      6.40685      8.46866        -0.007640     -0.027826     -0.003959
V	      6.24001      4.34009     10.54816         0.030445      0.046835      0.000371
V	      8.33038      6.40769     10.56442        -0.052885     -0.026756      0.053860
V	      4.25899      6.35987      6.41759        -0.010539      0.048609     -0.044645
V	      4.14898      4.23542      4.30949        -0.016238     -0.019996      0.005768
Cr	      6.25653      8.47990     10.68106         0.003853     -0.023085      0.101253
Cu	     10.36382      4.27093      6.40335         0.058823     -0.049973      0.031848
O	      2.20520      2.00053      2.17483        -0.078870      0.070465     -0.016270
O	      4.15553      4.10812      2.30645        -0.034538     -0.023466      0.157011
O	      4.23769      2.16618      4.35001        -0.008919     -0.057893     -0.032444
O	      6.17543      4.11771      4.17468         0.065470      0.008703      0.036891
O	      6.24050      2.07760      6.29290         0.029532      0.149936     -0.091286
O	      8.37628      4.27734      6.44344        -0.178820     -0.015301      0.007154
O	      2.07637      4.37724      4.27653        -0.067582     -0.070707     -0.000988
O	      4.16574      6.40921      4.37222        -0.037579      0.013425     -0.037771
O	      4.17827      4.28453      6.29963         0.026062      0.001989      0.075725
O	      6.20013      6.33440      6.42771         0.042188      0.032115     -0.011638
O	      6.26283      4.20669      8.78691         0.015291      0.050358     -0.174128
O	      8.35265      6.41713      8.59714         0.022307     -0.029039      0.013317
O	      2.06783      6.34216      6.41640         0.115044      0.020587     -0.065408
O	      4.17771      8.46515      6.19158        -0.042044     -0.120441      0.068960
O	      4.14380      6.49497      8.38722        -0.008487     -0.036127      0.123384
O	      6.12903      8.57166      8.63253        -0.000393     -0.050581     -0.002009
O	      6.25744      6.34794     10.54552         0.027371      0.040707     -0.193351
O	      8.32851      8.41066     10.64616         0.057307      0.083701     -0.005230
