# total energy = -244.75618200 eV
 
CRYSTAL
PRIMVEC
0.026504 6.306395 6.410707 
6.344987 0.033793 6.403508 
4.257964 4.227359 -0.005466 
PRIMCOORD
36 1
Li	      6.28594      0.14188      6.38374        -0.022968     -0.009233     -0.011297
Li	      6.36489      2.06715      4.39761        -0.030650     -0.039915      0.046099
Li	      6.34737      2.13783      8.44756         0.023727      0.009573     -0.026828
Li	      8.45570      4.30470      8.43534         0.028517     -0.046798     -0.048781
Li	      6.38515      6.34563      4.29637         0.015560      0.027378      0.013236
Li	      8.54825      6.26592      6.45636         0.003705      0.003092      0.023634
Li	      6.45259      4.21289      6.45667        -0.002254     -0.030963      0.026336
Li	      8.41398      6.35594     10.65340        -0.059188      0.001014      0.020816
Li	      6.41771      6.27496      8.53314        -0.011159     -0.009018      0.005893
Sc	      4.28740      4.27461      4.26424        -0.020431      0.054181     -0.018829
Mn	      4.36422      6.29166      6.37302         0.020429      0.003895     -0.012853
V	      8.33340      2.15084      6.38490         0.096620      0.016938     -0.012680
V	      4.26251      8.43260      8.53177        -0.029929      0.083856     -0.033034
V	      6.38413      4.24866     10.61303        -0.000094     -0.012794      0.052144
V	      2.14571      4.17584      6.37683        -0.024239      0.054523     -0.015742
V	      8.53780      8.28116      8.54339         0.024216     -0.189557      0.014229
Cr	      6.34958      4.26666      2.15197        -0.036691      0.040481     -0.073726
Fe	      8.50213      4.30876      4.35626        -0.086254     -0.036191     -0.013323
O	      2.24826      2.04889      2.05606        -0.012468     -0.030144      0.015972
O	      4.32354      4.18561      2.20036         0.026526      0.010842      0.029885
O	      4.27336      2.09677      4.10715        -0.015590      0.071804      0.006830
O	      6.39266      4.26911      4.17371        -0.018843     -0.002266     -0.057839
O	      6.45149      2.12456      6.40368        -0.107434      0.024140      0.026308
O	      8.45914      4.16875      6.31209         0.011789      0.015393      0.074816
O	      2.14510      4.27560      4.37807         0.017919     -0.021881     -0.012489
O	      4.28221      6.36953      4.25086         0.023325     -0.006398     -0.034352
O	      4.23619      4.18461      6.51166         0.032602     -0.041784      0.031739
O	      6.42820      6.48007      6.44707         0.058438     -0.014674      0.002583
O	      6.20645      4.24592      8.63636        -0.068081     -0.031610     -0.061027
O	      8.44611      6.52795      8.57314         0.015066      0.102471     -0.007826
O	      2.15607      6.33750      6.52423         0.013362     -0.035616      0.054547
O	      4.25143      8.45574      6.39817         0.022036      0.004410      0.044824
O	      4.14532      6.24913      8.62595        -0.002831      0.019384      0.024443
O	      6.38533      8.53030      8.43929         0.031825      0.032703     -0.004909
O	      6.25437      6.23223     10.65809         0.059070     -0.013156     -0.028237
O	      8.51743      8.49816     10.59229         0.024374     -0.004081     -0.040562
