# total energy = -240.40493339 eV
 
CRYSTAL
PRIMVEC
0.018740 6.312373 6.329774 
6.383644 0.009925 6.338191 
4.262738 4.221041 -0.000258 
PRIMCOORD
36 1
Li	      2.15553      0.08005      2.16331        -0.014837     -0.013981     -0.029487
Li	      4.12706      2.13063      2.05068        -0.017597     -0.015237     -0.036063
Li	      6.39555      2.18017      4.18760        -0.008349      0.002057     -0.021923
Li	      0.14009      2.10637      2.14795         0.014148     -0.017732      0.009843
Li	      2.15520      4.05816      2.21791         0.015636     -0.001785      0.007997
Li	      2.10789      2.11056      4.12576         0.003697     -0.038670     -0.001181
Li	      8.49651      6.36733      6.34400        -0.012413     -0.012625      0.005239
Li	      2.17886      4.15879      6.30579         0.034168     -0.037058      0.003003
Li	      4.32804      6.28073      6.26424         0.064516     -0.067068     -0.017468
Sc	      6.37690      6.39909      8.36357         0.014969      0.079983      0.037398
Mn	      4.41058      8.29687      4.23392        -0.012312     -0.023396      0.006127
V	      4.25594      4.26083      0.18593        -0.032259      0.008408     -0.136783
V	      4.19548      0.18758      4.19291         0.026606     -0.029021      0.077007
V	      6.35052      4.19877      6.33246         0.043183     -0.036457     -0.010752
V	      2.19971      6.24741      4.22403         0.061630      0.005837      0.073402
V	      8.47012      8.45430      8.42987        -0.024928      0.052742      0.095049
Cr	      2.12920      2.12258      0.07212         0.002669     -0.039407     -0.073046
Ni	      4.28802      4.17749      4.22732        -0.008673     -0.085751      0.062269
O	      2.12427      2.12000      1.99271         0.013019     -0.029407      0.078182
O	      4.24206      4.23176      1.95099        -0.000690      0.005101      0.085472
O	      4.27390      1.96615      4.21165        -0.009459     -0.005607     -0.026017
O	      6.49492      4.20558      4.26968         0.095567      0.040849      0.030184
O	      6.46665      2.08141      6.33965         0.024608      0.032546     -0.011133
O	      8.53581      4.19261      6.23892         0.013488     -0.012165     -0.040789
O	      2.25052      4.24890      4.23281        -0.086617     -0.015208      0.001665
O	      4.17428      6.20557      4.25721        -0.024175      0.070555     -0.030742
O	      4.38758      4.14854      6.35521        -0.018776      0.039832     -0.122100
O	      6.39658      6.19139      6.36137        -0.020485      0.046669      0.043787
O	      6.28011      4.24621      8.41803        -0.033182      0.058979     -0.068524
O	      8.44314      6.41671      8.59229        -0.005707      0.071852     -0.121499
O	      1.96629      6.43390      6.22751         0.021052      0.025982      0.050986
O	      4.17942      8.59671      6.33917        -0.069619      0.019656      0.054145
O	      4.27368      6.29767      8.56136         0.008231     -0.075542     -0.027477
O	      6.51147      8.43344      8.39279        -0.034399     -0.062193      0.005605
O	      6.31601      6.34361     10.64574         0.016711      0.042082     -0.033091
O	      8.55577      8.52483     10.55848        -0.039423      0.015182      0.080715
