# total energy = -247.48942030 eV
 
CRYSTAL
PRIMVEC
-0.005605 6.270249 6.396579 
6.378123 0.021511 6.369172 
4.268756 4.178369 -0.001955 
PRIMCOORD
36 1
Li	      4.42306      4.12281      0.21113        -0.012165      0.057353      0.059815
Li	      2.03492      6.28818      8.38396         0.044341      0.004432      0.037846
Li	      4.20035      2.26912      2.01277        -0.008802     -0.079700      0.012999
Li	      4.26073      6.23895     10.59624        -0.017797      0.033553     -0.029297
Li	      4.29986      6.12863      2.15944         0.026010      0.091949      0.004032
Li	      2.34093      4.10448      2.14631        -0.040722      0.044072     -0.011656
Li	      2.11568      6.23686      4.43911        -0.033468      0.020757     -0.030739
Li	      2.05371      4.44397      6.32863        -0.008888     -0.024429      0.004615
Li	      4.05414      6.30708      6.42497         0.016243      0.005915      0.009408
Sc	      6.30358      6.33531      8.44239        -0.032310     -0.170379     -0.023847
Mn	      4.20776      4.23226      8.49886         0.144979      0.054176     -0.035351
V	      6.41706      8.32369     10.63275        -0.041403      0.052871      0.262126
V	      2.14301      2.09020      4.10232         0.169607     -0.018714      0.008824
V	      8.56677      6.19247      6.39011         0.136951      0.069383     -0.116439
V	      6.39378      4.16311      6.39569        -0.059670     -0.057025     -0.005041
V	      4.26836      8.35688      4.33801        -0.092832     -0.001185     -0.108589
Cr	      2.17911      8.29224      6.49077        -0.081859      0.081399      0.002769
Cr	      4.21398      4.24701      4.17977         0.055961     -0.093368      0.157636
O	      2.18475      2.08040      2.13919        -0.005537      0.006381     -0.059936
O	      4.25992      4.19958      2.25772         0.018753     -0.001550     -0.010450
O	      4.28312      2.16066      4.33148         0.054104      0.004867     -0.003106
O	      6.29023      4.13248      4.31791        -0.021988      0.123125     -0.078084
O	      6.40888      2.13642      6.32429         0.078606     -0.074902     -0.056757
O	      8.40121      4.19441      6.42501         0.052178     -0.121901      0.039479
O	      2.15024      4.12537      4.25708         0.026393     -0.061017      0.013211
O	      4.40307      6.31051      4.24112        -0.149006     -0.008168     -0.012521
O	      4.37045      4.10700      6.28552        -0.056915      0.008480     -0.044365
O	      6.48840      6.16751      6.27989        -0.023993      0.055719      0.042085
O	      6.22238      4.21446      8.56161        -0.053586      0.038767      0.007153
O	      8.44746      6.43778      8.35895        -0.046292     -0.008952      0.026581
O	      2.11331      6.36688      6.40019        -0.002687      0.002313      0.021410
O	      4.16655      8.38548      6.27711        -0.015695      0.004998      0.060389
O	      4.28421      6.14696      8.48878         0.000375     -0.029416     -0.016251
O	      6.48887      8.37621      8.60026        -0.039273      0.031007     -0.056572
O	      6.36331      6.28954     10.55153         0.000552     -0.025706     -0.128759
O	      8.46544      8.37397     10.76751         0.019833     -0.015100      0.057382
