# total energy = -244.10456770 eV
 
CRYSTAL
PRIMVEC
0.000092 6.453563 6.414520 
6.264975 0.026176 6.388225 
4.196505 4.305208 -0.003007 
PRIMCOORD
36 1
Li	      4.23239      8.61211      8.57425         0.018890     -0.024791      0.010742
Li	      6.24588      8.60281     10.63031         0.033918     -0.023433     -0.038232
Li	      4.24635      4.27866      4.39410         0.022167     -0.018764      0.032845
Li	      4.18168      2.25294      6.40039        -0.024137      0.000792      0.076324
Li	      6.11322      4.38047      6.42378         0.010552      0.046085      0.037221
Li	      6.22950      4.37052     10.61809        -0.029957      0.051572      0.003741
Li	      4.26185      6.32745      6.40521        -0.022151     -0.090734      0.026286
Li	      4.24124      4.31095      8.45234        -0.006617     -0.044669     -0.057326
Li	      6.27294      6.39659      8.57974         0.051441     -0.062450      0.034074
Sc	      2.18407      4.26016      6.44282        -0.004644     -0.077369      0.014835
Mn	      8.36625      6.55377     10.61232         0.015934      0.043346     -0.028838
V	      6.23485      0.02979      6.35478         0.036082      0.054733     -0.044010
V	      8.40831      8.64560     12.76673         0.000399     -0.038137     -0.116647
V	      2.21220      6.39276      8.59865         0.109960     -0.099563     -0.027885
V	      6.24862      2.24264      8.49254        -0.259963     -0.007861      0.043958
V	      8.32729      4.35515      8.51740         0.000232      0.119830      0.020087
V	      6.31873      6.45210      4.33049        -0.096635      0.009307      0.081262
Co	      8.37470     10.74060     10.66057         0.020778      0.009923      0.056165
O	      2.07964      2.11367      2.12609         0.069116     -0.053346      0.000767
O	      4.24786      4.41499      2.05228        -0.000606     -0.018422     -0.005438
O	      3.94057      2.08476      4.22083         0.048498     -0.049845      0.033816
O	      6.25289      4.39881      4.12751         0.003613      0.020952     -0.051760
O	      6.36630      2.06430      6.48325         0.029242      0.031932      0.031883
O	      8.37974      4.26197      6.49511        -0.018645      0.027648     -0.036976
O	      2.11274      4.20088      4.21497        -0.006375     -0.066287     -0.080980
O	      4.35813      6.44762      4.12540         0.065471     -0.022717     -0.007524
O	      4.13781      4.30141      6.39958        -0.072677     -0.010634     -0.014485
O	      6.22031      6.50519      6.25087         0.002745      0.004322     -0.111977
O	      6.36078      4.23733      8.52597         0.073589      0.054277     -0.000776
O	      8.39345      6.40198      8.52696         0.024199      0.040113     -0.054584
O	      2.09269      6.46195      6.48166        -0.001854      0.016263      0.040009
O	      4.14522      8.75426      6.46487        -0.007604      0.030519     -0.014574
O	      4.00124      6.49827      8.51637        -0.087852     -0.030428      0.098488
O	      6.23742      8.79569      8.53745         0.012392      0.117270     -0.018455
O	      6.21774      6.52215     10.78339        -0.003816     -0.016189      0.001842
O	      8.36748      8.68136     10.80944        -0.005685      0.076754      0.066118
