# total energy = -242.12337931 eV
 
CRYSTAL
PRIMVEC
-0.004753 6.405331 6.218148 
6.399177 0.009484 6.203494 
4.277245 4.271822 -0.004868 
PRIMCOORD
36 1
Li	      4.25252      2.18357      2.12811        -0.036097      0.052563     -0.048290
Li	      4.22572      0.09288      4.15410         0.000687     -0.051636     -0.019613
Li	      6.32302      2.18701      4.14814         0.028706      0.079652      0.007060
Li	      2.18450      4.27228      2.09986         0.073147      0.033740      0.034055
Li	      4.27592      4.26634      4.15437        -0.000263      0.044141      0.051616
Li	      6.47491      4.22743      6.13736         0.010036      0.010345     -0.049050
Li	      0.06370      4.23204      4.12843         0.050015      0.019141     -0.004768
Li	      2.18405      6.34551      4.11522        -0.023498     -0.071190     -0.013662
Li	      4.23651      6.41931      6.12974        -0.017030     -0.037634      0.006835
Sc	      6.37604      6.45284     12.29672        -0.026727      0.066496     -0.063812
Mn	      8.62416      8.60248     12.31078        -0.029758      0.013580     -0.002735
V	      6.44909      4.28808      2.12014         0.076151     -0.051213      0.051930
V	      0.02353      2.16286      2.10987         0.000511      0.032589      0.021028
V	      6.46426      6.40484      4.19422        -0.073650     -0.046154      0.057325
V	      6.36128      8.52745      6.16515         0.112002      0.052129      0.020739
V	      6.35693      6.36693      8.30640         0.015248     -0.042531     -0.021985
V	      8.53051      8.53121      8.36448         0.017453      0.009663      0.062807
Cu	      8.55558      6.36859      6.19452         0.009213     -0.016322     -0.082060
O	      2.13313      2.11199      2.17662         0.024203     -0.002874     -0.001786
O	      4.42882      4.42488      2.03321        -0.065362     -0.031423     -0.020147
O	      4.05039      2.16571      4.17870         0.014382     -0.058074     -0.205966
O	      6.38743      4.40553      4.09034         0.038195     -0.079246     -0.033176
O	      6.52382      2.15210      6.27568         0.087769      0.057251      0.019926
O	      8.60719      4.31662      6.21014        -0.031085     -0.111886      0.010243
O	      2.14793      4.14489      4.21764        -0.030518      0.022208      0.030492
O	      4.43854      6.42657      4.07117         0.122349      0.022823     -0.091107
O	      4.08982      4.15822      6.37829        -0.032547      0.076467      0.057292
O	      6.23868      6.43756      6.21522        -0.131450     -0.012018      0.034144
O	      6.23112      4.28361      8.24575         0.078824      0.148961     -0.000590
O	      8.51996      6.47497      8.24495         0.143232     -0.012627      0.175065
O	      2.14756      6.36588      6.27892        -0.036188      0.064784      0.010524
O	      4.34464      8.62185      6.23339        -0.044038      0.040059      0.041332
O	      4.23397      6.24655      8.29302        -0.206505     -0.018713     -0.001062
O	      6.44767      8.50227      8.25796        -0.087914     -0.166867      0.024766
O	      6.40313      6.42180     10.24932        -0.063281      0.007743     -0.032153
O	      8.49819      8.48790     10.16992         0.033787     -0.043926     -0.025218
