# total energy = -245.58099377 eV
 
CRYSTAL
PRIMVEC
0.021333 6.396005 6.250093 
6.459429 0.017302 6.254136 
4.317676 4.277961 0.000507 
PRIMCOORD
36 1
Li	      0.05453      6.36879      6.22114        -0.015658      0.008646      0.003614
Li	      6.51972      8.44730     10.48816        -0.015787      0.009913      0.035600
Li	      2.26446      4.31263      2.04311         0.040762      0.037654      0.001257
Li	      4.29143      4.29160      4.23716         0.008159      0.011771     -0.016222
Li	      4.31510      2.24073      6.25158         0.012652      0.003429      0.012584
Li	      4.38639      8.53873      4.27190         0.020491     -0.018244      0.004217
Li	      8.54053      6.39552     10.43463        -0.028715     -0.027655     -0.039824
Li	      2.21717      4.27635      6.21596         0.089617     -0.032688      0.005448
Li	      4.30340      6.41264      6.16218        -0.019634      0.003802      0.013749
Sc	      4.39955      6.45577     10.43551        -0.103941      0.026921      0.021511
Mn	      6.43176     10.60270      8.32480         0.033446     -0.049348      0.004857
V	      2.21749      8.45750      6.19007        -0.015226     -0.020405     -0.031726
V	      4.27132      6.33666      2.13023         0.023799     -0.017734     -0.010451
V	      2.13232      2.30898      4.18810         0.030489     -0.192885      0.003617
V	      6.41132      4.27798      6.23480         0.003009     -0.053790     -0.045478
V	      8.62925      8.49396      8.33333        -0.096193      0.060797      0.023278
V	      6.52164      6.37268      8.34129         0.078811     -0.008511     -0.052324
Fe	      4.34038      2.23568      2.04356        -0.002602     -0.046108     -0.001712
O	      2.08660      2.16967      2.11463        -0.033125      0.035195     -0.001977
O	      4.29063      4.38871      2.06939         0.017810      0.006197     -0.003923
O	      4.20925      2.12920      4.10133        -0.010874      0.006031      0.114651
O	      6.52815      4.47244      4.18513        -0.004673      0.009792     -0.027170
O	      6.55160      2.24308      6.32185        -0.006156     -0.001861     -0.032874
O	      8.49718      4.08921      6.23919         0.015792     -0.024719      0.034929
O	      2.18911      4.07065      4.25674         0.003584      0.127068     -0.012611
O	      4.50098      6.42914      4.10615         0.010439      0.027948      0.048610
O	      4.43162      4.25152      6.33954        -0.026776      0.035489     -0.009677
O	      6.51427      6.29693      6.22290         0.022115      0.066366      0.040994
O	      6.36117      4.27807      8.32993        -0.052244      0.049625      0.081516
O	      8.63879      6.43922      8.36775        -0.139229     -0.143443     -0.018553
O	      2.13110      6.63128      6.22133         0.018114      0.028257     -0.052009
O	      4.13644      8.59403      6.29348         0.003507     -0.029646     -0.140298
O	      4.37517      6.32108      8.33649         0.011691      0.127488     -0.036611
O	      6.58212      8.41466      8.25992         0.137627     -0.015588      0.045833
O	      6.45362      6.42380     10.31141        -0.003817     -0.011416      0.085757
O	      8.61127      8.59239     10.45221        -0.007262      0.011651     -0.048582
