# total energy = -241.21074141 eV
 
CRYSTAL
PRIMVEC
0.023065 6.408734 6.271190 
6.485363 0.008811 6.285104 
4.323498 4.281696 0.006156 
PRIMCOORD
36 1
Li	      4.34701     10.53721      6.40301         0.020094     -0.004829     -0.040676
Li	      2.27348      2.18335      0.08412         0.003720      0.012387     -0.025845
Li	      2.11052      0.08768      2.11204        -0.012743     -0.014569      0.000281
Li	      4.15432      2.29997      2.17215         0.038029     -0.032175     -0.032810
Li	      4.26860      0.06364      4.17779         0.000869     -0.024765     -0.017312
Li	      2.37090      4.11250      2.13155        -0.009677      0.014952      0.030019
Li	      2.39867      2.18115      4.06629        -0.001151     -0.013618     -0.051019
Li	      4.29875      4.14577      4.04280         0.010536      0.027139      0.009340
Li	      4.32573      8.58325      4.27545        -0.058062      0.006756      0.003225
Sc	      0.18113      2.00551      2.11790        -0.007846      0.039151     -0.003112
Mn	      6.43904      6.39096      8.45916        -0.003816     -0.024937     -0.009963
V	      4.35430      2.10654      6.19824        -0.057879     -0.017459      0.060879
V	      6.58287      4.28066      6.15596        -0.004601      0.050435      0.197043
V	      8.60496      6.43330     10.52674        -0.053255     -0.023679      0.016525
V	      6.41700      8.56077      6.25636         0.053058      0.032983      0.031967
V	      4.29354      6.46762      6.24370        -0.008116     -0.019433      0.025984
V	      8.61110      8.60601      8.38880         0.013161      0.011101      0.016288
Ni	      6.48315      2.15260      4.19046        -0.024156     -0.042285     -0.043134
O	      2.13553      2.15202      2.13024        -0.000711     -0.009590      0.016064
O	      4.34023      4.32702      2.07714         0.009572      0.007781      0.015552
O	      4.42544      2.11946      4.28282        -0.088745      0.017749     -0.047173
O	      6.46390      4.25253      4.37553         0.011409      0.089356     -0.167156
O	      6.43700      2.29159      6.27066        -0.024976      0.020980      0.138825
O	      8.48812      4.41589      6.30415        -0.024277     -0.016621      0.004961
O	      2.16192      4.43480      4.28540        -0.028615      0.036910     -0.061998
O	      4.09427      6.47653      4.22250        -0.011638     -0.029293     -0.019222
O	      4.28228      4.27722      6.26659         0.044432     -0.000817     -0.006589
O	      6.48967      6.37068      6.20796         0.008713     -0.026656      0.029826
O	      6.33136      4.25540      8.14531        -0.022167      0.005694      0.015320
O	      8.67971      6.52382      8.38957         0.071339      0.050074     -0.010960
O	      2.22788      6.34792      6.18903         0.025918      0.021445     -0.004880
O	      4.45545      8.41894      6.29404        -0.011526      0.011546      0.016164
O	      4.33197      6.30419      8.26687        -0.036634     -0.059098      0.021773
O	      6.61240      8.53337      8.32009         0.051558     -0.014843     -0.080399
O	      6.71893      6.44447     10.53145         0.041627     -0.078437      0.005471
O	      8.60491      8.46606     10.44658         0.086554     -0.003335     -0.033257
