# total energy = -248.22029129 eV
 
CRYSTAL
PRIMVEC
0.003333 6.432068 6.321223 
6.405751 0.016579 6.307998 
4.277108 4.285856 0.004419 
PRIMCOORD
36 1
Li	      6.37423      0.08254      6.32139         0.000291      0.055145     -0.033186
Li	      2.12766      2.12411      0.04283        -0.016855     -0.020910      0.047343
Li	      4.25627      2.19524      2.05554        -0.032525      0.016127     -0.036245
Li	      6.48914      8.48759     10.51015        -0.012800      0.003848      0.054178
Li	     10.61596      6.40077      8.38220        -0.022741      0.017659     -0.049322
Li	      8.61294      4.36561      8.38638        -0.011979      0.037750     -0.017978
Li	      8.46163      6.49498     10.39111        -0.004832     -0.042300     -0.049122
Li	      8.50787      8.46939      8.51310         0.044963     -0.011639      0.009439
Li	      6.53547      6.49616      8.50680         0.044579     -0.024976      0.028069
Sc	      6.46148      4.19809      6.45456         0.034755      0.023049      0.077794
Mn	      4.35671      6.45592     10.47736        -0.003196      0.017962     -0.008256
V	      6.39337     10.71629      8.40046         0.009473      0.015245      0.080014
V	      2.11946      2.16349      4.10856        -0.011995     -0.079313      0.012751
V	      4.23034      4.30654      4.12911         0.071144     -0.053704      0.076504
V	      8.56847      6.41688      6.44720         0.434239     -0.042044     -0.101618
V	      6.33494      4.38944     10.42905         0.063316      0.013506     -0.071360
V	      6.35970      8.61678      6.37950        -0.083782      0.065261     -0.036370
V	      4.22215      6.47633      6.39246         0.058193     -0.031822      0.008773
O	      2.14074      2.01903      2.18840         0.011318      0.043294     -0.045056
O	      4.36371      4.28846      2.21312        -0.040651     -0.003438     -0.072998
O	      4.13761      2.27890      4.30949        -0.129689      0.091333      0.009043
O	      6.35150      4.33991      4.21488        -0.025247      0.002318     -0.001602
O	      6.34664      2.21502      6.27160        -0.187734     -0.198250      0.014834
O	      8.49700      4.38885      6.30215        -0.035205     -0.077503     -0.027793
O	      2.06010      4.24606      4.26106         0.047274     -0.006932     -0.004984
O	      4.36748      6.39601      4.31209        -0.033853      0.017575     -0.005511
O	      4.22411      4.28814      6.24673        -0.097227      0.075616     -0.012443
O	      6.36493      6.46409      6.27460        -0.018411      0.031900      0.000632
O	      6.42713      4.29318      8.49908         0.052131     -0.001008     -0.021353
O	      8.54716      6.45742      8.32883        -0.069120      0.084843      0.065011
O	      2.24407      6.37341      6.32680        -0.028946     -0.032641     -0.033973
O	      4.36255      8.52429      6.20942         0.004581      0.003777      0.020583
O	      4.16933      6.46708      8.36077         0.018491      0.016736      0.023939
O	      6.40411      8.69292      8.34398         0.006369     -0.083198      0.060950
O	      6.45784      6.27745     10.49677         0.051497      0.088200      0.003485
O	      8.80770      8.53082     10.53620        -0.085826     -0.011465      0.035825
