# total energy = -91.76506977 eV
 
CRYSTAL
PRIMVEC
0.000123 2.084966 2.084240 
6.084313 0.009948 -2.093876 
-2.032662 6.315831 -4.227782 
PRIMCOORD
16 1
Li	      2.03513      2.13642     -0.05648        -0.004854      0.008429     -0.001988
Li	      3.97244      1.98504     -1.99351        -0.011914     -0.016274      0.029743
Li	      0.07094      4.26366     -0.09248         0.000634     -0.004770      0.007394
Li	      0.03475      6.31444     -2.13503        -0.005444      0.006616     -0.025367
Mn	      0.06077      0.04477     -0.04366         0.027477      0.039481     -0.054355
Mn	      4.13529      4.19542     -4.19113         0.077366     -0.023996      0.035635
Ni	      1.95698      4.16954     -2.08371        -0.007209      0.018460     -0.003796
Ni	      1.91111      6.32604     -4.23734        -0.061872     -0.021553      0.044683
O	     -0.10586      4.20195     -2.11546        -0.160155      0.000863      0.005983
O	     -0.03236      1.94412      0.13985        -0.003784     -0.039615      0.052292
O	      4.04178      6.27705     -4.18710         0.090975     -0.006580      0.013335
O	      4.05249      4.35713     -2.26594         0.109116      0.059220     -0.083108
O	     -0.10705      6.32440     -4.23600        -0.180223     -0.016263      0.020264
O	      4.18903      2.02653      0.06195         0.080594      0.120887     -0.154257
O	      2.11893      6.29706     -2.12285         0.056177     -0.000892     -0.001744
O	      2.03204      2.19889     -2.19711        -0.006886     -0.124013      0.115286
