# total energy = -101.81797430 eV
 
CRYSTAL
PRIMVEC
0.001124 2.110649 2.106264 
6.575207 4.356825 -6.450901 
-4.320878 2.125006 -2.122808 
PRIMCOORD
16 1
Li	     -4.08030      2.25616     -2.25666        -0.002547     -0.015664      0.016332
Li	     -2.36997      4.02437     -1.91974        -0.046076     -0.004599      0.000654
Li	      2.38349      6.54012     -4.42820         0.032971      0.026124     -0.020217
Li	     -2.13127      2.29895     -0.19110        -0.028134     -0.018197      0.023884
Ti	      2.10705      4.26989     -2.15818        -0.272437     -0.092019      0.094055
Ti	      4.58617      4.37571     -4.37326         0.652713      0.194765     -0.197955
Ni	      0.09230      4.33088     -4.32489         0.000430      0.005675     -0.009003
Ni	     -0.28429      1.92604     -1.93070         0.173666      0.137060     -0.140807
O	     -0.04514      6.48054     -4.36672        -0.019656      0.056284     -0.058839
O	      0.25215      4.40089     -2.28483         0.334933     -0.096343      0.095048
O	      2.25503      4.20203     -4.19861         0.088656     -0.039279      0.041450
O	      0.02481      2.14222     -0.03738         0.039718     -0.151279      0.146169
O	      2.34708      2.33905     -2.33311        -0.090831      0.142890     -0.146421
O	      2.03079      6.36659     -6.36423        -0.648549      0.012619     -0.009866
O	     -2.16275      2.12622     -2.12861        -0.219051      0.033873     -0.029351
O	      4.32132      6.25823     -4.14921         0.004195     -0.191911      0.194868
