# total energy = -246.97694486 eV
 
CRYSTAL
PRIMVEC
0.047070 6.345365 6.486007 
6.283714 0.030026 6.503109 
4.200704 4.252927 0.008496 
PRIMCOORD
36 1
Li	      6.26953      0.06539      6.51386        -0.005958     -0.002052     -0.013886
Li	      2.24331      6.33782      8.55560         0.033134      0.006649     -0.016012
Li	      4.25364      8.38369      8.66707         0.005423      0.037429      0.013038
Li	      4.29792      6.29349     10.72833        -0.021905      0.027040     -0.038657
Li	      6.28009      2.16511      4.34442        -0.005817      0.000285      0.053482
Li	      6.33430      2.12805      8.58004        -0.011241     -0.020763      0.036023
Li	      6.30730      4.21937      6.56444        -0.031605      0.032432      0.020360
Li	      4.21695      6.37330      6.64710         0.019724      0.000581     -0.038413
Li	      4.20552      4.40861      8.64123        -0.018540     -0.050782     -0.017438
Sc	      8.37915      6.47713     10.85936         0.012414     -0.038954      0.007427
Mn	      2.17267      2.04317      4.27350         0.034129     -0.002072     -0.019120
Mn	      6.21535      6.38922      8.65495        -0.050954      0.030651     -0.021909
V	      2.11361      4.20349      2.16323         0.023858     -0.051847      0.035118
V	      4.38723      4.20665      4.27916        -0.098103     -0.020950     -0.014904
V	      4.29201      2.09190      6.48349        -0.020001      0.002951     -0.004657
V	     10.48429      8.51787     10.86759         0.014727     -0.024550      0.010358
V	      6.30190      8.51779      6.58326        -0.014794      0.039613     -0.157568
Cr	      8.32315      2.17870      6.54962         0.023170      0.006629      0.021941
O	      2.10421      2.21863      2.06284        -0.010740     -0.024322     -0.036893
O	      4.07118      4.26444      2.38810         0.054878      0.029394     -0.001073
O	      4.25546      2.26374      4.38436         0.079044     -0.017871      0.017040
O	      6.15846      4.23884      4.31297         0.090821     -0.069467     -0.002419
O	      6.29077      2.16026      6.55025        -0.003797      0.006928     -0.000757
O	      8.38469      4.27494      6.60903         0.000603     -0.016898      0.004268
O	      2.16638      4.28503      4.38202        -0.038370      0.013583     -0.023814
O	      4.20143      6.37480      4.28171        -0.064559      0.009294     -0.003850
O	      4.12871      4.15481      6.32972         0.020222     -0.013301     -0.019685
O	      6.42567      6.43094      6.46283         0.011336     -0.044768      0.048502
O	      6.34913      4.30247      8.80904        -0.022197      0.089562     -0.028524
O	      8.26135      6.30563      8.66047         0.003317      0.050945      0.008335
O	      2.11597      6.42322      6.45696         0.000561     -0.009796     -0.006557
O	      4.22758      8.47910      6.35828        -0.035068      0.011028      0.023326
O	      4.33580      6.36257      8.65555         0.048279      0.014925     -0.001760
O	      6.32433      8.42055      8.47773         0.006708     -0.036781      0.149572
O	      6.33220      6.26689     10.82664         0.012970      0.042881     -0.004176
O	      8.42120      8.50984     10.97726        -0.041669     -0.007624      0.023284
