# total energy = -197.28176145 eV
 
CRYSTAL
PRIMVEC
-0.014791 6.224180 6.202223 
6.212376 -0.012479 6.199896 
4.145221 4.151601 -0.012116 
PRIMCOORD
36 1
Li	     10.29511     10.35916     12.34274         0.070905     -0.196177     -0.053735
Li	      2.14814      8.28391      6.10222         0.113982     -0.059410      0.022511
Li	      4.16001      8.30191      8.16996         0.030203     -0.083394     -0.064932
Li	      6.17051      2.09200      4.21204        -0.047227      0.023458     -0.099206
Li	      4.17606      4.08043      4.20024         0.042596     -0.071810      0.026754
Li	      6.23066      4.14635      6.07646        -0.026656      0.107226     -0.037662
Li	      6.15146      8.24818      6.16429        -0.060370      0.027511      0.020611
Li	      4.13057      6.29612      6.11513        -0.031886      0.115300      0.054831
Li	      6.17860      6.23175      8.25073        -0.035271      0.082530     -0.049590
Sc	      1.97168      0.03012      1.99671         0.282299     -0.070070     -0.127531
Ti	      4.05803      4.19252      8.23170        -0.399127      0.331411     -0.023957
Cu	      2.08889      4.13524      2.06541        -0.078268      0.077023     -0.255179
Cu	      8.27949      6.20595      6.18664        -0.289532      0.062013     -0.183068
Cu	      2.03018      6.21082      4.22422        -0.172674      0.038664      0.266445
Ni	      8.30229      4.14634      4.15602        -0.076078     -0.044578     -0.007277
Ni	     10.33985      6.21698      8.25857         0.018012     -0.142811     -0.315215
Ni	      2.12340      2.08605      4.16552        -0.026245     -0.026070     -0.064856
Ni	      4.15162      8.30296      4.16627        -0.052508      0.161101      0.378877
O	      4.14539      8.28201      6.02474         0.018566      0.007803      0.248684
O	      6.15718      6.05171     10.35092         0.178572      0.174819     -0.053816
O	      2.04756      2.16617      2.09106        -0.334827     -0.439362     -0.313071
O	      4.07317      4.18451      2.07706         0.500365      0.606208      0.050340
O	      4.14116      1.98349      4.13148         0.280372      0.175516      0.034006
O	      6.27689      4.21483      4.06082        -0.173471     -0.249109     -0.034882
O	      6.01138      2.06235      6.30515         0.304261      0.079616      0.545230
O	      8.23575      4.30186      6.28066         0.058531     -0.046250      0.113878
O	      2.08580      4.18559      4.05183         0.091301      0.090323     -0.107179
O	      4.19198      6.35553      4.09294        -0.189530     -0.264215     -0.191624
O	      4.19615      3.97864      6.34776         0.014361     -0.008375      0.075006
O	      6.39961      6.23670      6.11859         0.004343     -0.000924      0.437245
O	      6.19597      4.10045      8.44098        -0.425230     -0.376617     -0.238862
O	      8.27377      6.20172      8.47185         0.245985      0.284102     -0.161033
O	      2.06140      6.24191      6.11997        -0.018586     -0.010817      0.324251
O	      4.12024      6.08087      8.23760         0.078358     -0.260081     -0.099069
O	      6.31983      8.32968      8.25283         0.169736     -0.042390     -0.014278
O	      8.25619      8.25448     10.26088        -0.065258     -0.052167     -0.102647
