# total energy = -197.85788746 eV
 
CRYSTAL
PRIMVEC
-0.018226 6.245342 6.289509 
6.212900 -0.008214 6.279288 
4.141568 4.156320 -0.005044 
PRIMCOORD
36 1
Li	      6.21446     10.36101      8.41965        -0.005863     -0.140026      0.040395
Li	      6.22338      8.33333     10.39086         0.029974     -0.003851     -0.079119
Li	      6.11496      2.17680      8.34874        -0.152992      0.126952     -0.010198
Li	      4.11256      2.18118      6.36236        -0.091906      0.109374      0.062868
Li	      6.12846      4.15869      6.31176        -0.026979      0.055709      0.052509
Li	      6.12213      4.16670     10.39575        -0.132943      0.001271     -0.092436
Li	      6.26510      8.24893      6.32952         0.028814     -0.101323      0.093466
Li	      4.22146      4.06126      8.36353         0.142746     -0.066730      0.031858
Li	      6.18630      6.26384      8.38499         0.015631      0.029389     -0.040492
Sc	      8.14449      4.22915      8.38659        -0.198426      0.155668     -0.124111
Ti	      6.25867      6.33400     12.50174         0.026528      0.287295     -0.167865
Cu	      8.27107      8.31076     12.54166         0.004832      0.057901      0.080333
Cu	      4.15201      8.30092      8.37335         0.328956     -0.050512      0.010561
Cu	      6.20623      6.20640      4.23407         0.011781      0.298319     -0.023250
Cu	      4.17721      4.13708      4.23961         0.173780     -0.194431     -0.078963
Cu	      4.18147      6.19847      6.32328        -0.049654     -0.052082      0.140051
Ni	      8.24909     10.33830     10.42723        -0.038748      0.092855      0.003026
Ni	      8.25953      6.29288     10.40655         0.169480     -0.069483     -0.005830
O	      4.06417      8.31587      6.34225         0.022891      0.034772     -0.210544
O	      4.13774      6.36856      8.33252        -0.072445     -0.047358      0.031647
O	      6.00952      8.30610      8.38536         0.035880      0.027175     -0.015232
O	      8.25981      8.32234     10.56278        -0.090168      0.023214     -0.156714
O	      2.22754      2.07192      2.06817        -0.096209     -0.101564      0.175105
O	      4.15565      4.03248      1.99862         0.036071      0.068542     -0.179355
O	      4.05612      2.09990      4.13408        -0.051611     -0.155192      0.054682
O	      6.17760      4.24818      4.18868        -0.083849     -0.168573     -0.052311
O	      6.27229      1.94875      6.31550        -0.118555     -0.260536      0.065208
O	      8.40261      4.08377      6.24357         0.069190      0.105472      0.060322
O	      2.17793      4.13832      4.18720         0.046328     -0.046594      0.105999
O	      4.18915      6.13149      4.31035        -0.147778      0.330078     -0.246506
O	      4.12551      4.24221      6.21290        -0.036461     -0.088843      0.312778
O	      6.13105      6.23568      6.19121         0.126792      0.019703     -0.065622
O	      6.20106      4.12537      8.40179         0.142196     -0.003600     -0.027817
O	      8.27214      6.23852      8.39309        -0.006472     -0.075389      0.019345
O	      2.02993      6.31028      6.22338        -0.008309     -0.211708      0.017767
O	      6.18720      6.19589     10.62377        -0.002501      0.014104      0.218446
