# total energy = -198.62611597 eV
 
CRYSTAL
PRIMVEC
0.031172 6.109655 6.263910 
6.366794 0.008948 6.287699 
4.255313 4.099919 -0.005332 
PRIMCOORD
36 1
Li	      6.42092      6.15887     12.48647         0.001009      0.065532      0.029752
Li	      2.12361      6.13563      8.29446        -0.005388     -0.008949     -0.062921
Li	     10.53665      6.12077      8.34434        -0.023808     -0.005345     -0.060179
Li	      8.60201      4.16955      8.29962         0.053835      0.050261     -0.027716
Li	      8.45314      6.19257      6.34269        -0.006264     -0.074490      0.040267
Li	      6.43869      4.03416      6.37849         0.046948      0.046614     -0.064788
Li	      2.19763      6.11922      4.13036        -0.014154     -0.021890      0.013564
Li	      4.20303      6.09677      6.23178         0.001265     -0.038362     -0.034453
Li	      6.49321      6.08156      8.33500         0.040386     -0.024182     -0.086183
Sc	      4.32466      8.14083      8.31495        -0.097434      0.104094     -0.085045
Ti	      6.27109      6.06517      4.21655        -0.354905      0.116869      0.602491
Cu	      8.51886      4.07217      4.24262        -0.189035      0.145889      0.159097
Cu	      6.44003      8.11864     10.52518         0.095877     -0.049917     -0.263647
Cu	      4.23549      4.10808      4.17034        -0.062483     -0.004867      0.300351
Cu	      6.37515      4.12310     10.43726         0.107393      0.060823     -0.198798
Cu	      2.16798      4.14679      6.25950         0.059858      0.191390      0.137197
Cu	      4.26724      4.06962      8.33456         0.095910     -0.042922     -0.142317
Cu	      2.09765      2.00928      0.03436        -0.023562     -0.179193      0.238835
O	      2.13744      6.18791      6.25991         0.024776     -0.370351     -0.037227
O	      4.23923      8.17491      6.23574         0.146228     -0.008683     -0.158623
O	      6.52464      8.17514      8.30582        -0.000758     -0.037497      0.273221
O	      6.27197      6.13258     10.42578         0.208558      0.166119      0.153526
O	      8.57739      8.20916     10.53222        -0.240512     -0.309058      0.164938
O	      2.20905      2.07800      2.24250         0.188748     -0.066865     -0.031533
O	      4.27277      4.06708      2.27854         0.042825     -0.204505     -0.198897
O	      4.18985      1.97074      4.18943         0.092782      0.262359     -0.062314
O	      6.42919      4.12580      4.23864         0.038239      0.027809     -0.051011
O	      6.53068      2.02659      6.18706        -0.156097     -0.044871      0.060255
O	      8.49358      3.93196      6.25103         0.042204      0.563653     -0.116048
O	      2.09171      4.05169      4.25546        -0.040046     -0.044767     -0.328722
O	      4.37007      6.18174      4.15659         0.222148     -0.182754     -0.032261
O	      4.17494      4.12202      6.06937        -0.092925     -0.049073      0.008435
O	      6.38533      6.22114      6.14217        -0.041501     -0.167998     -0.568401
O	      6.17305      4.08035      8.45325        -0.081416      0.025166      0.301018
O	      8.52725      6.31054      8.33246        -0.033498     -0.065451      0.030450
O	      4.26414      5.99190      8.45276        -0.045203      0.175412      0.097686
