# total energy = -241.67167431 eV
 
CRYSTAL
PRIMVEC
-0.034070 6.434835 6.263925 
6.345337 -0.023575 6.253003 
4.223402 4.276023 -0.008671 
PRIMCOORD
36 1
Li	      2.18078      6.34175      8.31836         0.001940     -0.023345      0.000038
Li	      4.33750      8.41510      8.33195         0.047465     -0.027515     -0.007473
Li	      4.17673      6.43499     10.31927        -0.022314      0.021106      0.031837
Li	      6.34044      8.53362     10.30995         0.027615     -0.025649      0.008000
Li	      6.35459      2.14353      8.32383        -0.006383     -0.029668     -0.005100
Li	      6.32708      4.24335      6.27809         0.035401      0.000848     -0.001115
Li	      6.27200      8.57532      6.38826        -0.035666     -0.021097     -0.017206
Li	      4.19545      6.45941      6.36761        -0.002810      0.087301     -0.024057
Li	      6.18150      6.53395      8.38284         0.036752      0.043700      0.039553
Sc	      4.26747      2.13785      6.28727         0.055151     -0.150199     -0.004460
V	      4.24932     10.67254      6.29318        -0.371868     -0.025264      0.169198
V	      8.40512      4.25800      8.34452         0.099053     -0.098569     -0.267658
V	      6.34642      6.32125      4.17667        -0.047731     -0.074378     -0.163748
V	      4.25045      4.27758      4.15586         0.067367      0.043557      0.020140
V	     10.54036      8.54725     10.42115        -0.130642     -0.037060      0.169791
Cr	      8.43912      6.41906     10.42889         0.077462      0.144824      0.047133
Fe	      4.07033      4.48529      8.28589         0.195888     -0.152097      0.063814
Co	      8.40979      2.11186      6.29108         0.038696      0.038704     -0.025672
O	      2.05649      2.25785      2.25209        -0.064522      0.094970      0.144357
O	      4.08753      4.27696      2.13852         0.008149      0.037099     -0.073580
O	      4.09618      2.18155      4.17962        -0.034023      0.016343     -0.005714
O	      6.21173      4.41794      4.11968         0.003184      0.101485      0.036427
O	      6.32488      2.00468      6.22922         0.046750      0.017004     -0.033902
O	      8.50872      4.26183      6.26006        -0.022028      0.036689      0.064828
O	      2.14511      4.32314      4.18035        -0.011406      0.010226      0.043457
O	      4.21717      6.45813      4.19066        -0.022882      0.002162      0.044668
O	      4.25765      4.22207      6.23028         0.026495     -0.048038     -0.037869
O	      6.36225      6.43739      6.00786        -0.018304     -0.005324     -0.027390
O	      6.38182      4.25267      8.42592        -0.096655     -0.003078     -0.013888
O	      8.43703      6.31249      8.37851        -0.014377      0.050878      0.031418
O	      2.00942      6.47639      6.18624         0.158668      0.047059     -0.097682
O	      4.12694      8.65439      6.20057         0.009538      0.019784     -0.095005
O	      4.21291      6.35438      8.34577         0.043027      0.098775     -0.030733
O	      6.41347      8.54945      8.33451        -0.088555     -0.033223     -0.006784
O	      6.45192      6.28144     10.48432         0.015292     -0.020765     -0.012105
O	      8.48925      8.42115     10.33804        -0.003729     -0.137247      0.036482
