# total energy = -238.24469054 eV
 
CRYSTAL
PRIMVEC
0.015903 6.472295 6.257972 
6.198975 0.030321 6.243478 
4.161074 4.333243 -0.007772 
PRIMCOORD
36 1
Li	     10.21917      4.40101      6.19249         0.030662     -0.096923     -0.064237
Li	      8.25043      2.28640      6.23545         0.106117      0.011557     -0.092500
Li	      8.30920      4.40778      4.28470         0.062143     -0.038555     -0.074441
Li	      6.15169      2.17760      4.23378         0.055534     -0.046150     -0.115208
Li	      8.26949      4.37461      8.22467        -0.025357      0.042469      0.101328
Li	      4.21275      4.26106      4.17965        -0.041436     -0.001152     -0.032500
Li	      4.21601      2.07854      6.18410        -0.148995     -0.057039     -0.051906
Li	      4.15846      6.46979      6.24310        -0.026049      0.011078     -0.030549
Li	      4.18970      4.26962      8.31141        -0.069779     -0.051383      0.087282
Sc	      2.22878      4.34530      6.22990        -0.095002      0.217848     -0.216357
V	      2.14686      6.47942      8.31779         0.102936     -0.244754     -0.195904
V	     10.29148      6.45151      8.26588        -0.561938      0.128545     -0.023429
V	     10.22695      8.68626     10.46159         0.169235      0.199297      0.047597
V	      6.22627      6.47341      8.33631        -0.152905     -0.013209      0.315653
V	      6.28526      6.46795      4.18896        -0.275292      0.144968     -0.056043
Cr	      4.11891      2.23929      2.03223         0.149281     -0.027394     -0.036794
Fe	      6.26614      4.25816      6.19826        -0.142372      0.409434      0.015347
Cu	      2.05520      6.51946      4.24456        -0.070820      0.126549      0.185892
O	      2.08918      2.08026      2.10711        -0.417450      0.074857     -0.142470
O	      4.26297      4.37685      2.06305        -0.060175     -0.010212     -0.035187
O	      4.04738      2.23971      4.01420         0.134700     -0.006432      0.100350
O	      6.22150      4.45547      4.11164        -0.021080     -0.053671      0.075134
O	      6.18678      2.26744      6.31382         0.020851     -0.220081      0.704617
O	      8.15327      4.37808      6.24793         0.110881     -0.030193      0.035442
O	      1.90826      4.14267      4.19025         0.101488     -0.157558     -0.054996
O	      4.18505      6.59517      4.07690         0.609099     -0.076897     -0.272667
O	      4.23645      4.36382      6.23113         0.144953     -0.094172      0.032493
O	      6.25853      6.47990      6.31238         0.037186     -0.062704      0.015690
O	      6.17724      4.29706      8.39324         0.008918     -0.083956     -0.157829
O	      8.24776      6.48587      8.48262         1.096765      0.019250     -0.731395
O	      2.13538      6.41174      6.28483         0.022388      0.031543      0.617217
O	      4.20656      8.67608      6.20766        -0.019658     -0.012860      0.195663
O	      4.18452      6.68581      8.33110         0.036972      0.056245     -0.011653
O	      6.16514      8.65094      8.34051        -0.015226      0.012763     -0.000355
O	      6.26087      6.34967     10.34974        -0.561978     -0.087862     -0.071805
O	      8.46427      8.74438     10.43039        -0.294598     -0.013245     -0.061481
