# total energy = -242.78968386 eV
 
CRYSTAL
PRIMVEC
0.021586 6.185847 6.323660 
6.432992 -0.000732 6.346737 
4.288695 4.139508 -0.000728 
PRIMCOORD
36 1
Li	      0.11481      6.14600      6.33153         0.134401      0.026813      0.008523
Li	      6.46140     10.29919      8.42930         0.050395      0.004367     -0.026349
Li	      4.30392      6.17618     10.47287        -0.033152      0.007946     -0.059128
Li	      2.15205      4.13007      2.15638        -0.051291      0.023184      0.014190
Li	      4.25483      4.10048      4.19383        -0.024959      0.008552     -0.012129
Li	      2.09958      6.14708      4.26050        -0.006686     -0.037236      0.012847
Li	      2.14453      4.16934      6.31076         0.014810      0.025579     -0.066483
Li	      8.55773      8.29247      8.49506        -0.004549      0.020071      0.004670
Li	      6.41568      6.24299      8.46897        -0.045640      0.038299     -0.000075
Sc	      4.24870      6.13148      6.38240        -0.002175     -0.076328      0.020285
V	      2.16666      2.06782      0.02617        -0.039788      0.063862     -0.004141
V	      6.48223      8.20420     10.50795         0.027130      0.022227      0.038539
V	     10.57998      6.09192      8.46238         0.106834      0.044859      0.046021
V	      6.44160      4.12916      6.36454        -0.012189     -0.016169      0.042108
V	      6.45730      4.25760     10.50960        -0.012328     -0.025815      0.002159
Cr	      2.16841      2.07528      4.16789        -0.001851     -0.055789     -0.007483
Fe	      4.39760      8.29237      8.43725        -0.052076      0.136039     -0.052754
Fe	      8.55756      6.17455      6.32189        -0.024482     -0.022335      0.034701
O	      2.10827      2.06565      2.10786         0.005840     -0.027123      0.055654
O	      4.32506      4.19944      2.11383         0.003653     -0.093658      0.006713
O	      4.23241      2.08848      4.11368        -0.000391     -0.039216      0.071361
O	      6.43825      4.10290      4.35430        -0.000372      0.040650     -0.055262
O	      6.48577      2.02404      6.36747         0.009172      0.022287      0.053191
O	      8.44709      4.11539      6.37817        -0.030306     -0.112124      0.025558
O	      2.01686      4.04784      4.21586         0.019597      0.031990     -0.017978
O	      4.40222      6.26081      4.12076        -0.032374     -0.050046     -0.017826
O	      4.39301      4.07774      6.36183        -0.013963      0.095830     -0.030930
O	      6.41001      6.18020      6.19109        -0.033402      0.066949      0.026526
O	      6.44237      3.99442      8.41162        -0.025334      0.050776      0.047879
O	      8.80292      6.20861      8.49261        -0.080223     -0.034344      0.003908
O	      2.22885      6.26430      6.31339        -0.003970     -0.041805     -0.022689
O	      4.26895      8.29710      6.35838         0.058436     -0.021671     -0.060605
O	      4.32770      6.31274      8.38036         0.041778     -0.077622      0.024426
O	      6.37927      8.29079      8.56480         0.138141     -0.026295     -0.050373
O	      6.47739      6.21418     10.53019        -0.019031      0.033258      0.014252
O	      8.65380      8.27308     10.67952        -0.059653     -0.005961     -0.069309
