# total energy = -243.63344754 eV
 
CRYSTAL
PRIMVEC
0.013454 6.384720 6.270261 
6.399527 0.015448 6.268147 
4.276097 4.264926 0.000596 
PRIMCOORD
36 1
Li	      0.19560      6.40413      6.24826         0.033434     -0.038847     -0.069100
Li	      2.14081      8.30819      6.26365         0.042620      0.005047     -0.065844
Li	      2.22255      6.30905      8.13571         0.022976     -0.012826      0.069385
Li	      6.35717      4.31700      6.36958        -0.003869      0.037330      0.026457
Li	      4.30791      8.49122      4.18048         0.001630     -0.010809      0.005838
Li	      2.20268      4.41781      6.33771        -0.032110     -0.039735     -0.011717
Li	      4.13935      6.31581      6.35853         0.024105      0.002867     -0.036007
Li	      4.26869      4.30273      8.28097         0.021296      0.000378      0.071883
Li	      6.37493      6.41390      8.31459        -0.042974      0.049346      0.019329
Sc	      8.61230     10.56313     10.49104         0.138344     -0.043217     -0.026048
V	      4.33245      8.48152      8.14090         0.048224     -0.072264      0.030183
V	      6.43068      2.17535      8.29505        -0.065288      0.059695      0.095125
V	      6.39078      6.39601      4.25434        -0.070825     -0.036991      0.058686
V	      4.28387      4.29847      4.22971        -0.021067      0.080921      0.031066
V	      8.49246      6.44425      6.32023        -0.049082      0.050063      0.057568
Cr	      6.43604      8.50963     10.45413         0.081783     -0.120225     -0.061530
Cr	      8.51737      4.28144      8.32744        -0.077382      0.053433      0.001329
Co	      2.10320      6.42014      4.28564         0.068194      0.123755     -0.197436
O	      2.21690      2.21630      2.14770        -0.051518      0.061608      0.038409
O	      4.19912      4.24927      2.14701        -0.073213      0.020856      0.079592
O	      4.30314      2.15502      4.15519         0.021226      0.029316      0.032319
O	      6.34366      4.28546      4.17833        -0.050474     -0.012528      0.039506
O	      6.28215      2.14036      6.27179        -0.035339      0.029530     -0.029058
O	      8.50635      4.40826      6.31809        -0.018970      0.040625      0.038150
O	      2.24021      4.16453      4.10186         0.061601     -0.047919      0.032696
O	      4.33671      6.34914      4.07253        -0.027018     -0.046612      0.075995
O	      4.25908      4.18490      6.20176         0.028535     -0.041034     -0.051473
O	      6.50102      6.41202      6.18048         0.035233      0.015027      0.014249
O	      6.52561      4.12422      8.37403         0.055622     -0.015374      0.017211
O	      8.61091      6.30852      8.38401        -0.012801     -0.083830      0.240522
O	      2.16494      6.38729      6.22279        -0.047138     -0.067670     -0.438959
O	      4.27404      8.55665      6.42222        -0.006391     -0.004266     -0.176193
O	      4.27357      6.56385      8.41694        -0.012077      0.028086     -0.013516
O	      6.25554      8.55039      8.46450         0.011104      0.002050      0.026345
O	      6.38297      6.50101     10.46825         0.026474      0.063769      0.044698
O	      8.42142      8.57095     10.42895        -0.024865     -0.059557      0.030341
