# total energy = -241.69448616 eV
 
CRYSTAL
PRIMVEC
-0.002703 6.325544 6.361611 
6.334578 -0.001986 6.360765 
4.197814 4.190492 0.025251 
PRIMCOORD
36 1
Li	      6.30497      4.19019      2.25300        -0.014920      0.036805      0.019566
Li	      4.20955      2.10174      2.24581        -0.013428      0.017514     -0.007380
Li	      6.28873      8.47688     10.44850         0.033596      0.029093     -0.024966
Li	      2.14598      4.15005      2.39148        -0.010425     -0.013595      0.016291
Li	      2.17795      2.15447      4.12188        -0.023001     -0.030890     -0.033270
Li	      4.15221      4.11970      4.15291         0.018952     -0.008752      0.012713
Li	      0.06768      4.20888      4.24082        -0.042368     -0.017494     -0.003626
Li	      2.09312      6.25810      4.23638        -0.007052      0.019481      0.025801
Li	      4.17228      6.31887      6.38326        -0.048330      0.004212      0.015543
Sc	      0.04773      6.30504      6.34748        -0.037181     -0.065297      0.008033
V	      2.18126      8.37281      6.38078        -0.111373      0.003194      0.066684
V	      4.22565      6.27000      2.33205         0.028141      0.054133     -0.048761
V	      6.25512      4.24013      6.29214        -0.026730      0.005827     -0.139584
V	      2.11255      4.23260      6.26872         0.148139      0.114381     -0.054178
V	      4.24072      2.15348      6.28308        -0.163723     -0.022985     -0.090671
Cr	      4.20012      6.32348     10.57182        -0.036173      0.059634     -0.083179
Cr	      6.32453      6.30233      8.53450         0.026141     -0.015884      0.145389
Cu	      8.37485      8.41270      8.59289         0.144216     -0.041012     -0.044020
O	      1.95555      2.13770      2.04049         0.006128     -0.038716      0.098109
O	      4.17500      4.34749      2.08339         0.011771     -0.053824      0.025324
O	      4.23514      2.02071      4.31155         0.109028     -0.078585     -0.034206
O	      6.40780      4.20285      4.33909        -0.058492     -0.006085      0.125159
O	      6.35498      2.12921      6.49360        -0.164291      0.107527     -0.032417
O	      8.37878      4.24313      6.31035         0.126724     -0.155609     -0.057210
O	      2.06762      4.18246      4.37694        -0.009714      0.012745     -0.006193
O	      4.15397      6.35010      4.05735        -0.017913      0.007214      0.093080
O	      4.25146      4.14272      6.20072        -0.129293      0.177089     -0.148593
O	      6.34279      6.34419      6.48635         0.197557     -0.253908      0.029170
O	      6.26987      4.20000      8.36760         0.096281      0.092659     -0.074372
O	      8.43302      6.33591      8.39072         0.036130     -0.064186      0.058272
O	      2.10448      6.27010      6.36250        -0.011689     -0.000026      0.027643
O	      4.16918      8.43374      6.44511         0.094160     -0.001360      0.045389
O	      4.32179      6.23771      8.59188         0.032200      0.135258     -0.000829
O	      6.39414      8.30367      8.37319        -0.183296     -0.004942      0.063286
O	      6.25726      6.32152     10.56374         0.011264     -0.026430     -0.019692
O	      8.38342      8.50397     10.82665        -0.011034      0.022813      0.027695
