# total energy = -245.36988479 eV
 
CRYSTAL
PRIMVEC
0.014396 6.332517 6.297272 
6.323969 0.025961 6.285523 
4.227004 4.224893 0.006403 
PRIMCOORD
36 1
Li	      6.32950      6.37022     12.50721        -0.007169      0.029716     -0.081508
Li	      8.36729      4.25961      4.18390        -0.005190     -0.016356      0.025860
Li	      6.30865      2.20404      4.20008         0.018577     -0.024456      0.014316
Li	      6.31947      6.20111      4.27441        -0.016250     -0.013672      0.035502
Li	      4.35286      4.24702      4.26805        -0.034727      0.000181      0.016683
Li	      6.24961      4.28257      6.13373        -0.022400     -0.044398     -0.043490
Li	     10.55420      8.47482     10.48845         0.018013      0.008936     -0.007391
Li	      4.28794      6.26423      6.22314        -0.027855     -0.042507     -0.046114
Li	      4.22843      4.26109      8.40964        -0.058014     -0.020580      0.006102
Sc	      8.46523      8.52182     12.47645         0.017620      0.041544     -0.100948
V	      6.33251      2.17570      8.41923        -0.035790      0.020929     -0.008753
V	      2.13402      4.21410      2.15495         0.031411      0.040025      0.022729
V	      4.23427      2.14916      6.15697         0.018153     -0.010942      0.047444
V	      8.44587      6.40516     10.47892        -0.043356      0.014285      0.004914
V	      2.10168      4.21365      6.25747         0.015889     -0.017930     -0.018972
Cr	      6.37693      4.19639      2.20689        -0.004136     -0.046034     -0.081006
Cr	      4.23526      2.12312      2.19631         0.027316      0.010402      0.000087
Fe	      6.22849      6.26532      8.44242         0.044894      0.044718     -0.084676
O	      2.15786      2.06477      2.10395         0.045568     -0.007519      0.040773
O	      4.24187      4.23212      2.13840         0.033230     -0.029429      0.018116
O	      4.21586      2.10912      4.20823        -0.033141      0.002414     -0.082116
O	      6.34856      4.22336      4.10084        -0.018385      0.002881      0.059278
O	      6.34659      2.13657      6.39932        -0.006098      0.007663     -0.018634
O	      8.48937      4.28398      6.40740        -0.003072     -0.032655      0.002166
O	      2.10071      4.34516      4.14813         0.004428     -0.007067     -0.011992
O	      4.12916      6.35664      4.08841         0.070597     -0.003174      0.048226
O	      4.10999      4.12525      6.30966         0.040578      0.073530     -0.004805
O	      6.34418      6.41716      6.40572         0.019492     -0.037958     -0.051271
O	      6.44387      4.22376      8.37703        -0.012400     -0.045648     -0.009179
O	      8.43575      6.31401      8.33550        -0.004760      0.012650      0.017201
O	      2.13804      6.28825      6.32193        -0.007965      0.049149      0.076990
O	      4.27365      8.47285      6.43871        -0.025832     -0.004525      0.025404
O	      4.22332      6.43150      8.41872        -0.098153      0.019084     -0.006407
O	      6.24113      8.49829      8.36338         0.006699     -0.017340      0.039725
O	      6.43164      6.35569     10.33611         0.031455      0.012640      0.157428
O	      8.47293      8.40003     10.49647         0.020771      0.031442     -0.001681
