# total energy = -248.59432399 eV
 
CRYSTAL
PRIMVEC
0.005391 6.247411 6.331577 
6.370483 -0.004355 6.341160 
4.244035 4.168294 0.000200 
PRIMCOORD
36 1
Li	      4.34206      8.27634      8.44161         0.014881     -0.023009     -0.041796
Li	      6.28931      2.05504      4.19486        -0.002135     -0.024641      0.013310
Li	      6.33716      2.09705      8.43203         0.013953     -0.007399     -0.006385
Li	      8.43841      6.30448      6.36104        -0.022003     -0.022888     -0.042081
Li	      6.30275      4.18528      6.41383         0.016143     -0.013850      0.002257
Li	      2.18723      6.22509      4.20047        -0.000059      0.022207      0.008458
Li	      6.40255      8.25509      6.45249        -0.002343      0.024087     -0.013584
Li	      4.35049      6.22655      6.36963         0.018975      0.022314      0.071400
Li	      6.36010      6.32043      8.26538        -0.012039      0.001314      0.058844
Sc	      6.36659      6.26682      4.39321         0.018042      0.036670      0.085950
V	      6.38393      0.03009      6.32780        -0.004071      0.097294      0.073883
V	      8.45545      2.05883      6.35232        -0.059577     -0.015201      0.012726
V	      6.36067     10.34218      8.42233         0.004986      0.046069     -0.130805
V	      8.44927      4.27647      8.41889         0.048554      0.046272      0.032197
V	      4.26177      4.06487      8.33070        -0.006573      0.057164      0.074102
Cr	      4.28183      6.28108     10.53589        -0.000704     -0.036302     -0.039092
Cr	      4.23761      4.17928      4.30626        -0.028688     -0.043294      0.078062
Cr	      4.25042      8.32736      4.22097        -0.030617      0.023990     -0.016504
O	      2.13879      2.11175      2.02148         0.019848      0.013103      0.104721
O	      4.16705      4.16298      2.19664         0.009114      0.020119      0.042884
O	      4.22356      2.09606      4.22159        -0.023629     -0.011040     -0.034391
O	      6.32732      4.17910      4.12749         0.028060      0.041438      0.022970
O	      6.50046      2.00867      6.30507        -0.035987     -0.056689     -0.126403
O	      8.56507      4.15215      6.28634        -0.011855     -0.044672     -0.025673
O	      2.14152      4.19572      4.16402        -0.013287     -0.007429      0.047248
O	      4.27113      6.22558      4.24911        -0.014953      0.038394      0.012249
O	      4.28732      4.15919      6.33859         0.005492      0.007952     -0.177758
O	      6.36175      6.25628      6.31437         0.011069     -0.027886     -0.099423
O	      6.44937      4.14218      8.55581        -0.089047     -0.019301     -0.009506
O	      8.49410      6.24955      8.44127         0.038770      0.011272      0.019636
O	      2.01809      6.25044      6.42304         0.059106      0.088276     -0.071862
O	      4.14387      8.41067      6.23206         0.093022     -0.166662      0.051343
O	      4.19195      6.13688      8.55352        -0.033881     -0.022747      0.029716
O	      6.44417      8.41475      8.43703         0.008832     -0.087817      0.046009
O	      6.25907      6.16367     10.61602        -0.050817     -0.003677     -0.063636
O	      8.60868      8.39616     10.53091         0.033416      0.036572      0.010934
