# total energy = -237.92604386 eV
 
CRYSTAL
PRIMVEC
0.025703 6.338279 6.297719 
6.329293 0.035681 6.287657 
4.254001 4.253062 -0.010519 
PRIMCOORD
36 1
Li	      0.03505      6.31505      6.26570         0.013664     -0.030061     -0.084479
Li	      8.41159      2.20092      6.27124         0.033219     -0.025018     -0.005327
Li	      6.34893      4.26737      2.09220         0.034012     -0.003193      0.000694
Li	      8.51695     10.54592     10.50353         0.034193     -0.025756      0.015551
Li	      6.37597      2.16965      4.21365         0.009352     -0.017242      0.015080
Li	      6.41948      4.19178      6.28351         0.037107      0.027644     -0.028854
Li	      6.30241      4.34925     10.48797        -0.023189      0.038563     -0.026811
Li	      6.34192      8.53553      6.29768        -0.043356      0.025802     -0.025101
Li	      4.26668      4.26073      8.42519         0.044636      0.017279      0.025664
Sc	      4.23816      6.33218      6.31679        -0.013661      0.034593      0.149601
V	      4.40324      8.44178      8.34602        -0.084226     -0.169967     -0.043399
V	      8.39743      4.26066      8.33190         0.010422     -0.052755      0.048727
V	      6.38979      6.35208      4.17996         0.062033      0.012799      0.063584
V	      4.31158      2.12399      6.30889         0.007472     -0.046332     -0.028199
V	      8.35897      6.55833     10.50874        -0.297073      0.013318     -0.078030
V	      4.29865      4.25125      4.19086        -0.007977     -0.060324     -0.012026
Co	      6.32918      6.35301      8.39951        -0.360190      0.153360     -0.098278
Cu	      6.36937      2.22388      8.30682        -0.047862     -0.124730      0.002128
O	      2.33095      2.14358      2.18174         0.022475     -0.022190     -0.062318
O	      4.17088      4.13995      2.16293         0.055872      0.107660     -0.064869
O	      4.21326      2.16345      4.18744         0.038365      0.006461      0.026261
O	      6.26175      4.39302      4.15187         0.043550     -0.050334      0.063111
O	      6.21647      2.17326      6.36607        -0.089599     -0.044830      0.026439
O	      8.47803      4.38897      6.37380        -0.000471      0.027761     -0.114409
O	      2.22657      4.25424      4.10731         0.011933     -0.017405      0.023165
O	      4.21605      6.34582      4.14625         0.004988     -0.006611     -0.000738
O	      4.21678      4.19703      6.20984         0.015439     -0.035190      0.042532
O	      6.41366      6.40933      6.21277         0.066558      0.030490     -0.237866
O	      6.47138      4.23435      8.39529         0.038791     -0.192270      0.057240
O	      8.28152      6.36188      8.42110         0.135254      0.011814     -0.052824
O	      2.16704      6.31845      6.13288         0.004737      0.025460      0.104014
O	      4.24682      8.40766      6.43791         0.005758      0.020200     -0.013023
O	      4.30227      6.40352      8.39050        -0.082243      0.106919     -0.075440
O	      6.19003      8.49755      8.42790         0.138773      0.193547      0.006846
O	      6.49167      6.33775     10.43637         0.172396      0.030312      0.368189
O	      8.48306      8.32805     10.45587         0.008848      0.040225      0.013166
