# total energy = -236.79247893 eV
 
CRYSTAL
PRIMVEC
0.002102 6.301383 6.208321 
6.394441 -0.013045 6.223658 
4.266217 4.214285 -0.011938 
PRIMCOORD
36 1
Li	      6.40792      6.28116     12.34963         0.002915      0.009823      0.064991
Li	      8.54977      8.36679     12.32658         0.047204     -0.024749      0.065144
Li	      6.47023      2.07343      4.28315         0.023518      0.048520      0.014039
Li	      2.16103      4.17953      2.14594         0.078563     -0.032765      0.001120
Li	      6.29553      6.33813      4.18608         0.009453     -0.050471     -0.059336
Li	      4.24703      4.30423      4.17749         0.057255     -0.016644     -0.019409
Li	      6.38532      4.16835      6.09995         0.031785     -0.008660     -0.141415
Li	      2.19757      6.32237      4.24687         0.001916      0.001753      0.039847
Li	      4.24420      6.36458      6.02615        -0.043190      0.026023      0.071241
Sc	      6.42984      6.19523      8.35257         0.014350      0.187854     -0.073965
V	      6.35517      4.25470      2.09587         0.103049     -0.052194      0.219348
V	      4.19160      2.16019      2.09313        -0.108269      0.094327      0.267897
V	      0.01561      2.12875      2.10126         0.021727     -0.346700     -0.171610
V	      4.32102      2.02503      6.08896         0.021177     -0.118626      0.074906
V	      2.09570      4.18929      6.09389         0.004578      0.114730      0.022719
V	      8.51464      8.41082      8.30116        -0.065011     -0.025497     -0.066623
Co	      4.26737      8.40219      4.16083        -0.013296     -0.113680      0.028470
Ni	      8.55066      4.17898      4.18883        -0.138753      0.036194      0.075097
O	      2.17395      2.01073      2.04145         0.047885      0.209293      0.026644
O	      4.38809      4.26851      2.11210        -0.248841     -0.026718      0.003576
O	      4.29406      2.08280      4.12966        -0.012624      0.138066     -0.030244
O	      6.49262      4.17530      3.93287        -0.106778     -0.000947      0.350096
O	      6.27302      2.10333      6.27846        -0.067887     -0.027733      0.006964
O	      8.47056      4.42360      6.22114         0.086218      0.049142      0.179916
O	      2.00999      4.24350      4.18727        -0.095995      0.009795      0.033474
O	      4.26493      6.36714      4.05994        -0.024113      0.275686      0.041585
O	      4.21250      4.03541      6.25580        -0.060867      0.005906     -0.009128
O	      6.50164      6.39777      6.22233        -0.007829     -0.004595     -0.004078
O	      6.31971      4.14595      8.18863         0.039424      0.072212      0.508985
O	      8.54460      6.37535      8.20704        -0.061167     -0.048830     -0.043899
O	      2.17644      6.18464      6.42451         0.018036     -0.065765     -0.516877
O	      4.28738      8.41058      6.36201         0.018108      0.022919     -0.696447
O	      4.25061      6.25318      8.28583         0.162639      0.071204     -0.132243
O	      6.35785      8.41213      8.25043         0.010685     -0.135532     -0.058141
O	      6.35424      6.22326     10.36695         0.145708     -0.095649     -0.094944
O	      8.59386      8.40911     10.27804         0.108426     -0.177690      0.022300
