# total energy = -240.26700185 eV
 
CRYSTAL
PRIMVEC
0.043409 6.263114 6.297986 
6.387271 0.028886 6.312505 
4.270941 4.198085 0.006313 
PRIMCOORD
36 1
Li	      2.10702      2.14870      0.12998        -0.016815     -0.009935     -0.010753
Li	      6.39896      4.21509      2.12385        -0.035201     -0.020590      0.017560
Li	      6.45258      8.39601     10.42902         0.004441      0.015742     -0.047523
Li	      6.48759      2.31305      8.34783         0.024009     -0.002349     -0.008284
Li	      8.37366      4.15781      8.29614         0.036951     -0.031128     -0.014782
Li	      8.55706      6.27009      6.35394        -0.007713     -0.013215      0.004295
Li	      6.43005      4.16909      6.46046        -0.050564      0.036619     -0.053342
Li	      6.34235      4.24121     10.34391        -0.020100     -0.012303      0.036124
Li	      4.42404      4.18199      8.41299         0.020811     -0.000458     -0.021519
Sc	      2.13815      2.10486      4.11447         0.006389      0.010020     -0.144928
V	      6.35662      0.17660      6.38379        -0.004340      0.160762      0.135898
V	      8.56811     10.38833     10.53561        -0.024592     -0.027248     -0.092490
V	      4.35033      4.15699      4.14431        -0.016290     -0.029488     -0.063835
V	      8.53440      6.41438     10.40770        -0.008782      0.049294     -0.105173
V	      6.44064      8.37952      6.37456        -0.008218      0.020037      0.102696
V	      4.26045      6.33170      6.36892         0.099307      0.021902      0.121167
Co	      4.28688      8.35438      8.39258        -0.026973      0.047779     -0.006599
Co	      6.42605      6.19018      8.40278        -0.014916     -0.048258     -0.003755
O	      2.17978      2.10012      2.12384        -0.011677      0.007362      0.121097
O	      4.29930      4.14680      2.10126         0.007877     -0.020257     -0.040721
O	      4.23027      2.02519      4.25295        -0.019773     -0.005299     -0.035068
O	      6.36262      4.20106      4.22330         0.113695      0.012063      0.046117
O	      6.37772      1.92683      6.39108        -0.012403     -0.027119     -0.036187
O	      8.69786      4.18629      6.21236        -0.000717     -0.045151      0.078963
O	      2.29181      4.27214      4.27085        -0.020794      0.017599     -0.035125
O	      4.21122      6.27373      4.29383        -0.031002     -0.005597     -0.012488
O	      4.19570      4.29934      6.18987        -0.014413     -0.038624      0.057782
O	      6.33346      6.32964      6.27331        -0.028366     -0.049893     -0.025810
O	      6.42149      4.24640      8.39571        -0.001180      0.066044      0.006916
O	      8.52781      6.29753      8.63337         0.026350      0.036516      0.081215
O	      2.11206      6.27756      6.18727         0.101471     -0.014169     -0.031034
O	      4.41815      8.38962      6.24844        -0.011776      0.056365     -0.029948
O	      4.26357      6.26741      8.41007        -0.010660     -0.043088      0.018414
O	      6.39210      8.27522      8.31521        -0.032720     -0.015767      0.034759
O	      6.48213      6.29950     10.65561        -0.017863     -0.029677     -0.035092
O	      8.53626      8.37590     10.52317         0.006545     -0.068491     -0.008547
