# total energy = -246.22517659 eV
 
CRYSTAL
PRIMVEC
0.017206 6.281508 6.359898 
6.346813 0.011000 6.365954 
4.235276 4.195518 0.003392 
PRIMCOORD
36 1
Li	      0.05687      6.29507      6.38446         0.006395      0.005166      0.043689
Li	      8.40886      2.13627      6.38669        -0.001899      0.002374      0.013286
Li	      6.32619      4.20012      2.10233         0.006839     -0.033548     -0.046443
Li	      4.26285      2.10010      2.15529         0.043805     -0.020891      0.000445
Li	      8.49140     10.46445     10.60297         0.010849      0.010541     -0.039643
Li	      4.28392      4.16813      4.18816         0.028558     -0.030637      0.021926
Li	      6.44123      4.12792      6.30539         0.050539      0.033276     -0.028460
Li	      8.42220      6.35847     10.65261        -0.026226      0.007858      0.038373
Li	      8.43682      8.44026      8.51829        -0.012970      0.048670     -0.008981
Sc	      4.29074      2.08633      6.31054        -0.004279      0.048957     -0.041388
V	      6.45550      8.44346     10.59840         0.017789     -0.016246     -0.033600
V	      2.19613      4.16493      2.11942        -0.058495      0.049303      0.004374
V	      6.39286      6.15909      4.18898         0.098787     -0.001156      0.130385
V	     10.45658      8.43767     10.66650        -0.052249      0.120701      0.008779
V	      4.20622      6.24929      6.36767        -0.026147      0.071994      0.056432
V	      6.33729      6.30857      8.48519        -0.072490      0.023991     -0.003251
Cr	      4.23873      6.26951      2.12792        -0.053811      0.018117      0.004838
Fe	      2.10381      4.31080      6.38646        -0.003829     -0.233338     -0.044023
O	      2.01810      2.09466      2.21117        -0.103524     -0.063547     -0.059328
O	      4.12879      4.30831      2.17471         0.047503      0.012340     -0.024253
O	      4.30447      2.09556      4.24849        -0.029184     -0.028924     -0.000392
O	      6.38820      4.17783      4.23053        -0.012146      0.035866     -0.013066
O	      6.32942      2.14708      6.42684         0.031153     -0.046708      0.083796
O	      8.43775      4.23908      6.52885         0.050601     -0.022548      0.008038
O	      1.99149      4.05249      4.24518         0.014031      0.038759     -0.021064
O	      4.27338      6.31550      4.22439        -0.007194     -0.043885     -0.165227
O	      4.11327      4.23517      6.32269         0.059137     -0.117258     -0.020597
O	      6.34754      6.32298      6.29815         0.025682      0.023365      0.015685
O	      6.42725      4.21793      8.62582         0.040997     -0.207454     -0.064522
O	      8.48961      6.28633      8.46901         0.106250     -0.009556     -0.011125
O	      2.15523      6.19385      6.36791        -0.015397      0.330066      0.020400
O	      4.31563      8.30844      6.28376        -0.054083      0.003313      0.026388
O	      4.39393      6.27322      8.31320        -0.059701     -0.079163      0.100445
O	      6.38354      8.28948      8.45859        -0.005992      0.112457      0.032505
O	      6.36148      6.37579     10.53163        -0.019758     -0.033983      0.009221
O	      8.47293      8.42360     10.62328        -0.019541     -0.008271      0.006355
