# total energy = -248.80103340 eV
 
CRYSTAL
PRIMVEC
-0.003068 6.402608 6.285239 
6.300677 -0.003638 6.285658 
4.202551 4.271025 -0.004477 
PRIMCOORD
36 1
Li	      2.07152      2.11724      0.10623         0.004753     -0.005006      0.002628
Li	      6.24551      4.37577      2.31435         0.029950     -0.011980     -0.021412
Li	      4.13215      0.05463      4.13948        -0.000682      0.026619      0.033669
Li	      6.26118      2.20829      4.14118         0.003369      0.012495      0.028501
Li	      0.14625      2.04657      2.13287         0.041046     -0.021167      0.026222
Li	      2.17802      4.15211      2.13349         0.020576     -0.050219      0.033670
Li	      2.12041      1.99823      4.04992         0.017173     -0.016852      0.051220
Li	      4.30730      4.24407      4.03675        -0.010622     -0.036100      0.025536
Li	      6.28764      6.42365      8.44103        -0.011079      0.012113      0.016687
Sc	      6.39809      4.18311      6.20145         0.076670     -0.042692     -0.052238
V	      4.12120      2.17628      2.19906         0.012011     -0.048310      0.029410
V	      4.20023      2.11189      6.21037         0.038177     -0.021258      0.045584
V	      6.29127      4.28659     10.40379        -0.046331     -0.012237     -0.013671
V	      2.10548      4.25652      6.27115        -0.057121     -0.037142      0.002468
V	      4.20134      6.41734      6.28412        -0.006781      0.023429     -0.013827
V	      8.34698      8.57105      8.42558         0.010149      0.057810      0.062577
Cr	      6.29652      0.03711      6.32136        -0.054120     -0.017637      0.061095
Cr	      8.38159      6.39682     10.40443         0.027887      0.042405     -0.061915
O	      2.21215      2.12436      2.08943        -0.025919     -0.038167      0.008872
O	      4.22864      4.15473      2.01030         0.012161      0.045929     -0.046727
O	      4.18737      2.15691      4.26178         0.030836     -0.021259     -0.000640
O	      6.31306      4.23717      4.27258         0.002369      0.020122      0.101121
O	      6.23276      2.05421      6.32443         0.008404      0.020814      0.007390
O	      8.47782      4.34973      6.30821        -0.026766      0.017037      0.016953
O	      2.03257      4.37390      4.23628        -0.030414      0.012194     -0.038707
O	      4.11206      6.50046      4.26632        -0.042768     -0.026115     -0.005645
O	      4.16959      4.28047      6.32018         0.093702      0.022518      0.011306
O	      6.25163      6.43042      6.25993         0.023751      0.120809     -0.028005
O	      6.17607      4.32106      8.40935         0.004205      0.020650     -0.059443
O	      8.35707      6.55915      8.35699        -0.026163     -0.017365      0.022687
O	      2.10728      6.32604      6.17307        -0.025831     -0.066885     -0.040595
O	      4.25820      8.57229      6.26934        -0.097383      0.003518     -0.031549
O	      4.17958      6.41003      8.27314         0.011840     -0.005914     -0.069426
O	      6.29531      8.52126      8.28104         0.001061      0.025676     -0.083112
O	      6.36395      6.32404     10.56150         0.024898      0.041611      0.013575
O	      8.45792      8.42100     10.46059        -0.033008     -0.029444     -0.034259
