# total energy = -235.51054673 eV
 
CRYSTAL
PRIMVEC
-0.010745 6.350308 6.137082 
6.427854 -0.045218 6.170967 
4.261390 4.232236 -0.006176 
PRIMCOORD
36 1
Li	     10.61582      4.19175      6.18478        -0.048164      0.014398      0.000827
Li	      4.31006     -0.00299      4.13681         0.012806      0.030372      0.038734
Li	      6.39094      8.39973     10.26374         0.016272     -0.028890      0.058166
Li	      4.30894      6.31241      2.08298         0.054676     -0.071674     -0.004310
Li	      2.19414      4.18304      2.06736         0.034043      0.019129     -0.026009
Li	      2.17008      2.11629      3.99538         0.014249     -0.005629     -0.014551
Li	      4.23487      4.20466      3.99784        -0.009133      0.010032     -0.017070
Li	      6.39917      4.17756     10.22107        -0.025056     -0.002610     -0.028664
Li	      8.57898      8.45441      8.26571        -0.003165      0.016181      0.026956
Sc	      2.11201      4.21450      6.08959         0.059301     -0.005022     -0.036777
V	      6.34480      4.24849      2.15181        -0.030598      0.022548     -0.022704
V	      6.47255      4.13756      6.09013        -0.049945     -0.023439      0.031202
V	      8.56731      6.35287     10.16499        -0.020511      0.129443      0.010406
V	      4.26489      6.31030      6.08889         0.038221     -0.093359     -0.052040
V	      4.33442      2.06634      6.08978         0.021987      0.091714      0.060454
V	      6.36611      6.31508      8.29605         0.014982      0.046672      0.049931
Cu	      2.15587      2.14303      0.02931        -0.062554      0.057506     -0.064913
Ni	      4.25548      2.13480      2.15959        -0.023307      0.003602      0.019299
O	      2.18045      1.99031      1.99446        -0.054587     -0.040978      0.074344
O	      4.41795      4.17966      2.03228         0.015964      0.043571     -0.034335
O	      4.24772      2.10256      4.19244         0.014273     -0.037501      0.002848
O	      6.41023      4.23705      4.23071         0.009181      0.009764      0.093932
O	      6.34805      2.22507      6.19129        -0.104195      0.116274      0.034365
O	      8.43069      4.27965      6.15665        -0.044092      0.112467      0.031436
O	      2.11736      4.44933      4.07630         0.015739     -0.072786     -0.066157
O	      4.14264      6.36451      4.12831         0.025102     -0.016498     -0.012390
O	      4.30786      4.22669      6.14272         0.033930      0.050418     -0.031253
O	      6.41319      6.31843      6.18150        -0.032902     -0.080551     -0.030499
O	      6.36788      4.34337      8.00248         0.011649     -0.077951     -0.078567
O	      8.45456      6.36289      8.22201         0.070985     -0.020790     -0.032450
O	      2.20071      6.26017      6.12050         0.029632     -0.111657     -0.000299
O	      4.30405      8.30322      6.18104         0.077856     -0.026358     -0.079986
O	      4.22466      6.32091      8.16501        -0.040818     -0.041365     -0.012506
O	      6.37324      8.43686      8.20984         0.083525      0.008592     -0.003710
O	      6.53091      6.28307     10.20218        -0.066645      0.024111      0.122452
O	      8.55521      8.21155     10.35708        -0.038699     -0.049738     -0.006160
