# total energy = -235.58079281 eV
 
CRYSTAL
PRIMVEC
0.025408 6.160289 6.470317 
6.319331 0.019670 6.476037 
4.223159 4.121314 0.002775 
PRIMCOORD
36 1
Li	      8.47519      8.25875     12.92711        -0.001619     -0.019514      0.014946
Li	      6.31457      2.07753      4.36266        -0.025315     -0.020072     -0.049618
Li	     10.38468      6.21995      8.63366         0.035335     -0.019357      0.011169
Li	      6.32607      6.17465      4.39299        -0.013917     -0.010113      0.031824
Li	      8.46547      6.17396      6.54145        -0.032594     -0.004383     -0.001300
Li	      8.43529      6.25469     10.75498        -0.000089      0.022605     -0.031188
Li	      2.14124      4.15171      6.45333         0.036388      0.032149      0.073988
Li	      4.23864      6.10728      6.46493        -0.027161     -0.042860      0.034380
Li	      4.29009      4.04381      8.60103        -0.017370      0.008540      0.005572
Sc	      6.43968      6.18758      8.60224         0.017069     -0.060073     -0.065129
V	      2.10819      6.21902      8.52554         0.004248      0.029264      0.056603
V	      4.21035      2.09768      2.13661        -0.018738     -0.026479      0.007319
V	      4.25398      6.17918     10.78773        -0.003862     -0.007881      0.003443
V	      4.31593      8.12086      4.50012         0.107808      0.008184      0.026403
V	      4.13505      4.18546      4.38858         0.022256     -0.003000      0.049981
V	      6.30431      4.04114      6.44366         0.031084      0.083061     -0.014635
Cu	      6.35852      0.13763      6.43147        -0.062960      0.031714     -0.023645
Cu	      8.44006      4.12007      8.56972         0.006172     -0.016887      0.072403
O	      2.25434      2.06832      2.13934        -0.087810     -0.113814      0.020545
O	      4.22490      4.16464      2.36217         0.052723     -0.017847      0.144651
O	      4.20447      2.09746      4.15500         0.004271     -0.076437     -0.007066
O	      6.29611      4.12339      4.34004         0.034455     -0.000990      0.009106
O	      6.35592      2.21074      6.43657         0.013437     -0.086764     -0.023203
O	      8.37908      4.15881      6.27135         0.044972     -0.015474     -0.228266
O	      1.97031      4.08964      4.43384        -0.099721      0.014715      0.109990
O	      4.18468      6.18357      4.41173         0.026307      0.050158     -0.000911
O	      4.30466      4.06316      6.34720        -0.014989     -0.000737      0.001423
O	      6.30130      5.94523      6.53113         0.060249     -0.034887      0.062317
O	      6.38438      4.07101      8.54169        -0.065344      0.061293     -0.060413
O	      8.42113      6.10373      8.61607         0.022042      0.179768     -0.011125
O	      2.03477      6.20900      6.68335         0.052965     -0.003722     -0.008321
O	      4.26615      8.27744      6.45885        -0.059877      0.092303      0.010604
O	      4.18981      6.17560      8.70665        -0.036932      0.086305     -0.014754
O	      6.27143      8.30724      8.61291         0.005282     -0.072758     -0.018343
O	      6.33698      6.09938     10.71164        -0.005600     -0.063734     -0.174116
O	      8.73156      8.30228     10.75769        -0.003165      0.017724     -0.014632
