# total energy = -238.54161306 eV
 
CRYSTAL
PRIMVEC
0.016816 6.471473 6.199096 
6.338079 0.006123 6.210227 
4.234515 4.330491 -0.005420 
PRIMCOORD
36 1
Li	      8.34879      2.25158      6.32809        -0.033827      0.071647     -0.032893
Li	      2.08912      0.08124      2.03930        -0.003784      0.032256      0.038653
Li	      4.13429      2.19950      2.02466        -0.022268      0.005290     -0.010790
Li	      6.36790      2.20638      4.12930        -0.028699      0.092015     -0.017045
Li	      6.36547      2.15206      8.18493        -0.012562      0.007079     -0.004322
Li	      8.47008      4.30403      8.18215        -0.023411     -0.011084     -0.002098
Li	      6.43476      4.19896      6.26937         0.012729     -0.068504     -0.009784
Li	      8.47109      8.55989      8.31863         0.033623      0.024721     -0.035307
Li	      6.43673      6.49765      8.29225        -0.036758     -0.016593     -0.028706
Sc	      2.12009      2.11462      3.96195        -0.031529      0.069491     -0.026180
V	      4.21916      6.44926     10.26175        -0.067622      0.111451      0.019513
V	      8.50077      6.48072      6.28756         0.014310      0.039218     -0.171039
V	      6.30592      4.35181     10.22419         0.085248     -0.059234      0.098042
V	      6.36008      8.66310      6.38475         0.027995     -0.052369     -0.196146
V	      4.22432      6.49139      6.33822         0.064237     -0.027603      0.011472
V	      4.24654      4.31803      4.02644         0.000412     -0.022729      0.009984
Fe	      4.24354      4.42035      0.09125         0.032590     -0.170929     -0.076128
Cu	      8.38632      6.61935     10.14410        -0.060194      0.097081     -0.120884
O	      2.11417      2.16370      2.03851        -0.036418     -0.026049      0.038763
O	      4.22027      4.30301      2.05989        -0.003697      0.016558      0.094813
O	      4.21409      2.14713      4.18416        -0.006379     -0.002133      0.004997
O	      6.26811      4.34335      4.15753         0.016409     -0.015611     -0.050996
O	      6.27747      2.04042      6.17539         0.003061      0.155671     -0.025836
O	      8.52735      4.40128      6.12225        -0.015901     -0.069223     -0.027632
O	      2.15524      4.22617      4.25506        -0.032830     -0.038187      0.017009
O	      4.27630      6.51671      4.27726        -0.060818     -0.029114     -0.006308
O	      4.13833      4.35358      6.12556         0.030580     -0.019797      0.013732
O	      6.32926      6.61539      6.21701         0.014909     -0.011854      0.012639
O	      6.40256      4.28580      8.47854        -0.015601      0.016636     -0.138838
O	      8.45307      6.52739      8.15932         0.046935     -0.014001      0.272540
O	      2.14961      6.31390      6.23336        -0.004722      0.004305     -0.029761
O	      4.38178      8.62801      6.09711        -0.056381      0.037065      0.079178
O	      4.24490      6.48600      8.28482         0.022257     -0.041433     -0.001214
O	      6.36303      8.62045      8.12215         0.032065     -0.022545      0.323961
O	      6.28466      6.30615     10.43903         0.168925      0.020756     -0.039866
O	      8.60945      8.81123     10.37935        -0.052885     -0.082246      0.016473
