# total energy = -242.60666813 eV
 
CRYSTAL
PRIMVEC
0.023355 6.335579 6.346236 
6.317615 0.013168 6.356623 
4.220752 4.239753 -0.000400 
PRIMCOORD
36 1
Li	      8.37839      2.18307      6.30853        -0.003526      0.055576     -0.008675
Li	      6.35972      2.22443      4.28165         0.036229     -0.003562      0.009184
Li	      8.37958      4.28139      8.46064         0.028132     -0.013812     -0.025053
Li	      4.19152      4.18004      4.33605        -0.054130     -0.057393     -0.014149
Li	      4.25795      2.24006      6.31869         0.028478      0.039716     -0.030074
Li	      6.29920      4.17817      6.34688         0.008209      0.011737     -0.011402
Li	      8.46567      6.35013     10.54849        -0.011207      0.019567     -0.012064
Li	      2.22080      4.19624      6.30285         0.002801     -0.044802     -0.017473
Li	      4.24464      4.19324      8.41972         0.034151     -0.010774     -0.007363
Sc	      6.32777      0.06578      6.31840        -0.070297      0.096483     -0.040446
V	      4.19714      2.13195      2.10795        -0.014419      0.021528      0.070541
V	      8.44499      4.20048      4.30579        -0.064700      0.062447      0.037869
V	      6.22046      2.18422      8.42563         0.014343     -0.006252      0.024906
V	      6.33726      6.39600      4.30205        -0.013547     -0.052153     -0.000093
V	      4.22645      8.46177      4.26187         0.033133      0.032895     -0.088311
V	      6.48694      6.32850      8.40953         0.054623      0.027254     -0.004542
Fe	      6.34111     10.49937      8.49442         0.026009     -0.001943      0.036901
Fe	      4.18474      6.15883      6.32650         0.006982      0.114643     -0.044050
O	      2.07230      2.04078      2.22001         0.031255     -0.020950     -0.008379
O	      4.29549      4.25308      2.09339        -0.064899     -0.019046     -0.021833
O	      4.18458      2.03047      4.12617         0.011891      0.039703     -0.046777
O	      6.38405      4.30897      4.12949        -0.001753     -0.019860      0.039471
O	      6.34557      2.12363      6.48151         0.021152     -0.039416     -0.008668
O	      8.49650      4.27875      6.25150         0.037278      0.010781      0.044795
O	      2.02290      4.11232      4.22881        -0.017467      0.022048      0.034599
O	      4.20705      6.42821      4.21766         0.016782     -0.086984      0.009834
O	      4.20782      4.30735      6.32505         0.016250     -0.153488      0.032365
O	      6.22304      6.33767      6.31493         0.012034      0.017192      0.020098
O	      6.34327      4.31415      8.53623         0.002063     -0.009901      0.121616
O	      8.45313      6.39043      8.46350        -0.041534     -0.050705      0.015922
O	      2.17750      6.33674      6.48647        -0.041706     -0.011228     -0.026535
O	      4.19629      8.44516      6.42510        -0.004691     -0.052149     -0.112195
O	      4.27237      6.37496      8.46590        -0.029065     -0.020486     -0.004104
O	      6.22856      8.43684      8.49261        -0.016769     -0.044069     -0.026510
O	      6.38287      6.28486     10.55170        -0.025230      0.114366      0.035711
O	      8.53153      8.57028     10.57957         0.053144      0.033036      0.024882
