# total energy = -102.52973167 eV
 
CRYSTAL
PRIMVEC
3.945150 -0.000466 0.000186 
1.973705 4.726933 -6.527673 
1.972851 4.467001 2.008449 
PRIMCOORD
16 1
Li	      3.94657      0.24594     -0.19161         0.001800      0.021286     -0.002515
Li	      1.97422      2.56250     -0.33008        -0.002785     -0.021835     -0.041000
Li	      3.94696      2.04476     -2.10131        -0.002995      0.019398      0.034313
Li	      1.97422      4.20304     -2.03647         0.003067     -0.020674      0.009982
Ti	      3.94612      4.61917     -4.25670         0.002545     -0.135536      0.268300
Ti	      5.92115      7.07775     -4.63099        -0.004915      0.200669     -0.487675
Ni	      3.94689      4.67032     -0.13112        -0.001252     -0.116688     -0.014686
Ni	      3.94725      6.71199     -2.17960         0.003834      0.058270     -0.037260
O	      3.94754      4.68819     -2.40382        -0.001937     -0.094429     -0.357059
O	      5.92016      7.18378     -2.43492        -0.002618      0.195533     -0.047498
O	      3.94691      2.26817      0.09203         0.000029     -0.020074      0.493015
O	      1.97431      4.49075     -0.12027         0.005191      0.009747      0.012216
O	      1.97433      2.23587     -2.24261        -0.003064      0.137311      0.175109
O	      5.92000      4.88218     -4.41995         0.005120      0.012391      0.015285
O	      3.94795      6.72076     -4.35741        -0.001702     -0.001780     -0.079106
O	      5.92091      8.93885     -4.41798        -0.000318     -0.243589      0.058580
