# total energy = -241.39945287 eV
 
CRYSTAL
PRIMVEC
0.007492 6.390973 6.274682 
6.381137 0.001139 6.280869 
4.254654 4.265648 0.000143 
PRIMCOORD
36 1
Li	      4.22069      4.32438      0.22744        -0.043733      0.029279     -0.093165
Li	      6.11089      4.27860      2.10775         0.055468      0.028736      0.018564
Li	      4.25158      2.38052      2.09760        -0.023885     -0.036709      0.020554
Li	      4.17729      6.19478      2.04191        -0.011948      0.035341      0.000050
Li	      2.34737      4.29471      2.06264        -0.071340      0.002652      0.012341
Li	      4.23790      4.27970      3.99338        -0.033365      0.037942      0.085906
Li	      4.36516      2.12923      6.35773         0.034709     -0.005407     -0.010080
Li	      6.29273      4.21776      6.37515        -0.086672     -0.016013      0.020519
Li	      4.31996      4.21904      8.28777         0.039749      0.024528      0.002015
Sc	      2.10965      2.12260      0.17855        -0.012509     -0.004387      0.057994
V	      8.44534      4.31028      4.19076        -0.060903      0.031211     -0.099042
V	      6.31981      2.18942      4.18674        -0.005666      0.002364     -0.005662
V	      2.10898      2.11894      4.11896        -0.024138     -0.024615     -0.026087
V	      6.39142      4.25605     10.39658         0.033444     -0.031460     -0.067486
V	      2.19741      6.36004      4.12251         0.045289      0.004664     -0.008076
V	      2.19507      4.28979      6.35619         0.012408     -0.024401     -0.013020
V	      6.43940      6.33096      8.33210        -0.054917      0.006308     -0.098695
Cu	      4.27122      6.34451      6.35652        -0.008831      0.007980      0.043515
O	      4.24197      4.27456      2.10210        -0.003476     -0.011575     -0.032216
O	      2.15260      2.13394      2.17002         0.033510     -0.003237     -0.069491
O	      4.18059      1.98554      4.22147         0.020459      0.001465      0.021064
O	      6.50100      4.22066      4.14323        -0.040317     -0.039360      0.043887
O	      6.41373      2.16499      6.13380         0.035873     -0.015164      0.026901
O	      8.57171      4.17004      6.04472         0.009479     -0.050580      0.096547
O	      2.08253      4.30778      4.27314        -0.001243      0.048720      0.034743
O	      4.31031      6.55101      4.06092        -0.023008      0.002058     -0.141434
O	      4.11197      4.39079      6.28077        -0.015674     -0.162501      0.010523
O	      6.34257      6.45045      6.21780         0.038771      0.027820      0.053767
O	      6.38307      4.38506      8.41873         0.024931     -0.002764      0.006230
O	      8.42897      6.39762      8.45161         0.036091      0.012690      0.006340
O	      2.18794      6.41421      6.18173        -0.010494      0.017677     -0.032562
O	      4.30964      8.44156      6.18971         0.032498      0.122508     -0.020506
O	      4.40925      6.31806      8.63593         0.044184     -0.051828      0.108899
O	      6.34532      8.40622      8.37279        -0.010301      0.022971      0.010713
O	      6.40112      6.41617     10.43552         0.006835      0.022642      0.011896
O	      8.49087      8.46167     10.49237         0.038721     -0.009555      0.024554
