# total energy = -246.48771979 eV
 
CRYSTAL
PRIMVEC
-0.010447 6.389367 6.377596 
6.260160 -0.002772 6.370412 
4.171503 4.252865 -0.000002 
PRIMCOORD
36 1
Li	     10.41712      4.27036      6.39437        -0.025870      0.038122     -0.012054
Li	     10.36454      6.44718      8.59340        -0.006119      0.062437     -0.001092
Li	      6.07938      6.40822      4.27194        -0.097793     -0.026928      0.006602
Li	      4.15172      4.37165      4.25825         0.047243      0.000806      0.011052
Li	      8.35694      6.40354      6.46073         0.071472      0.005539      0.032348
Li	      4.19269      8.38768      4.16159        -0.046386     -0.025251     -0.064022
Li	      4.20495      6.34247      6.26538        -0.005217     -0.013930     -0.004381
Li	      4.27220      4.19632      8.43694         0.055497     -0.019426     -0.008279
Li	      6.29875      6.28457      8.46379        -0.011055     -0.049539      0.005690
Sc	      2.15644      4.12585      6.31320        -0.006525     -0.049144     -0.001822
V	      2.09773      8.51556      6.37922        -0.016090      0.034796     -0.030791
V	      6.19890      4.27613      2.11377         0.031783     -0.013941      0.137108
V	      4.14855      2.13243      2.11662         0.037038     -0.062701      0.100833
V	      4.24007      6.40846     10.62786        -0.050930     -0.028025      0.005693
V	      6.26195      8.49770     10.63092        -0.017673      0.146293      0.106452
V	      6.17777      4.33061      6.39284        -0.086540     -0.009785     -0.006485
V	      2.16555      6.37696      4.24306        -0.024363      0.079566     -0.079173
Fe	      8.28750      4.34214      8.56613         0.061930     -0.119727     -0.172947
O	      2.06647      2.09587      2.05465         0.010365      0.001533      0.036152
O	      4.15337      4.14707      2.13307        -0.048873      0.020478     -0.021007
O	      4.26400      2.04102      4.14896        -0.047808     -0.057763      0.028053
O	      6.33866      4.17584      4.23539         0.020490      0.054515     -0.103482
O	      6.33734      2.24060      6.29569         0.052206      0.050814     -0.115455
O	      8.30527      4.22012      6.37391        -0.007062     -0.052125      0.050494
O	      2.06558      4.28632      4.21262        -0.013541     -0.103087      0.140542
O	      4.06785      6.39521      4.25538        -0.008932     -0.037597      0.008970
O	      4.18485      4.21903      6.39515        -0.035823      0.032972      0.019594
O	      6.25227      6.34499      6.35581         0.047726      0.057616     -0.039880
O	      6.33891      4.26291      8.41069        -0.075680     -0.046131      0.128064
O	      8.34611      6.27529      8.61185        -0.004069      0.194244     -0.012329
O	      2.04612      6.40737      6.35529         0.003025     -0.012880      0.016584
O	      4.12973      8.50239      6.49413         0.055562     -0.062141     -0.017796
O	      4.04147      6.48076      8.60613         0.018485     -0.003383     -0.062225
O	      6.23030      8.62722      8.50600        -0.005655      0.009144     -0.024915
O	      6.25814      6.50019     10.62688         0.116435     -0.046929     -0.027837
O	      8.33994      8.54956     10.70251         0.012745      0.051559     -0.028259
