# total energy = -242.64236769 eV
 
CRYSTAL
PRIMVEC
0.030566 6.231373 6.302886 
6.440492 -0.004440 6.337643 
4.306984 4.190830 -0.016183 
PRIMCOORD
36 1
Li	      8.72553      8.33619     12.51268         0.032068      0.033636     -0.022736
Li	      4.35718      8.23119      8.33920        -0.014923      0.047748      0.030220
Li	      4.41061      6.11907     10.45368        -0.016589      0.026815      0.021806
Li	      6.58647      8.24695     10.49517         0.042688      0.014905      0.013402
Li	      8.51152      4.19257      8.41341        -0.016369      0.009666     -0.009301
Li	     10.66192      8.40337     10.53581        -0.042482     -0.026322      0.023125
Li	      6.34048      8.34444      6.34604        -0.071932      0.010518      0.024813
Li	      8.66025      8.40561      8.52720         0.036312     -0.016023     -0.008016
Li	      6.36500      6.22319      8.52143        -0.050772     -0.056554      0.030025
Sc	      4.29080      4.12051      4.15327         0.024474     -0.102795      0.032236
V	      4.31082     10.31982      6.25272        -0.022323     -0.012343     -0.017985
V	      2.30006      6.10851      8.35977         0.005085      0.180732      0.085343
V	      6.44094      2.12993      8.43078        -0.008761      0.011448      0.037744
V	      2.13554      2.15632      4.22720         0.044025     -0.047464     -0.117099
V	      6.53861      4.14526      6.31411         0.037487     -0.024672     -0.027432
V	      8.54462      6.33610     10.52321        -0.006262     -0.085504     -0.066885
V	      8.58624      6.26403      6.36380         0.023925      0.048406     -0.056676
Ni	      4.32851      6.35605      6.34613        -0.017970     -0.096951     -0.038530
O	      2.03605      1.93509      2.23238         0.024971      0.015305     -0.016441
O	      4.40294      4.24590      2.04258         0.030946     -0.030455     -0.046687
O	      4.20101      2.10441      4.33273        -0.015904      0.030082     -0.083246
O	      6.43564      4.26458      4.19337        -0.035373      0.007357     -0.015556
O	      6.36337      2.02544      6.36710        -0.076877      0.045025     -0.057178
O	      8.56817      4.25384      6.30428         0.006755     -0.138531      0.009132
O	      2.21685      4.16375      4.16917         0.040822      0.025477      0.036642
O	      4.26748      6.26214      4.21896         0.019940      0.013385     -0.063227
O	      4.49299      4.12148      6.24812        -0.006059      0.116950      0.037906
O	      6.47074      6.24998      6.24514         0.145722      0.057089      0.099321
O	      6.51318      4.08128      8.28221        -0.023888      0.048507      0.043093
O	      8.73251      6.26191      8.40282         0.004140      0.030437      0.052162
O	      2.17781      6.23352      6.38256        -0.055879     -0.027701      0.011750
O	      4.31724      8.39650      6.32877        -0.005697      0.028933     -0.011239
O	      4.20407      6.26261      8.36068        -0.014899     -0.034172      0.130805
O	      6.44557      8.54919      8.45124        -0.020648     -0.179553     -0.014161
O	      6.57132      6.22277     10.61843        -0.014543      0.014136     -0.042347
O	      8.61885      8.22686     10.51788         0.018789      0.062482     -0.004784
