# total energy = -249.64030846 eV
 
CRYSTAL
PRIMVEC
0.005569 6.355061 6.276724 
6.397608 0.008804 6.273527 
4.270905 4.240315 0.000170 
PRIMCOORD
36 1
Li	      2.10706      0.02504      2.06149        -0.065959      0.000589      0.019961
Li	      4.27016      8.49377      8.34904         0.046211      0.037604      0.002486
Li	      2.16161      4.20036      2.09477         0.052204      0.000507     -0.025237
Li	      4.26592      4.22027      4.29514        -0.011102     -0.004216      0.045492
Li	      4.20139      2.23525      6.25269        -0.008352      0.018169     -0.043882
Li	      6.30393      4.29501      6.24747        -0.024972      0.005847     -0.012986
Li	      4.36058      8.40537      4.21233         0.021667     -0.032202      0.023675
Li	      6.45486      8.44301      6.28664         0.006974     -0.008785      0.047665
Li	      4.30962      6.30122      6.28601        -0.005797     -0.026494      0.038603
Sc	      2.23771      6.20016      4.23115         0.034182     -0.094735     -0.053922
V	      4.28265     10.53415      6.33630        -0.054175      0.199856      0.134084
V	      2.22097      8.46949      6.31827        -0.111996      0.084166      0.011637
V	      4.23396      0.03727      4.16991         0.013225      0.029993     -0.069878
V	      6.30728      2.20490      4.16768         0.029924      0.173780      0.001271
V	      6.39754      2.13651      8.35047        -0.018584     -0.094004     -0.042842
V	      6.38649      6.42265      4.25047         0.072555     -0.017278     -0.048127
V	      4.26914      4.25129      8.22595        -0.087862      0.059427      0.030325
V	      6.41739      6.32086      8.22502        -0.004176      0.022266      0.025837
O	      1.99452      2.16392      2.15789         0.056938     -0.016623      0.011594
O	      4.23256      4.38210      1.99690        -0.021565     -0.001680     -0.047506
O	      4.31179      2.08244      4.17672        -0.051576      0.022373      0.009373
O	      6.50959      4.31785      4.16447        -0.042999      0.023204     -0.011359
O	      6.50496      2.06318      6.21829         0.011963     -0.025119      0.003073
O	      8.59293      4.13216      6.17350         0.050469     -0.046350      0.063595
O	      2.12406      4.18809      4.21104         0.006646      0.069565      0.008014
O	      4.27925      6.36879      4.14595        -0.030622     -0.012249      0.000539
O	      4.25327      4.24858      6.34529         0.001740     -0.012857     -0.053331
O	      6.40698      6.36101      6.26647         0.024159      0.021668     -0.032897
O	      6.27175      4.22084      8.37427         0.092110     -0.014151      0.010718
O	      8.51939      6.36661      8.36880        -0.055367     -0.021183      0.061878
O	      2.10708      6.44018      6.27880        -0.006067     -0.021227     -0.002258
O	      4.18357      8.57381      6.32035         0.057183     -0.139659     -0.037484
O	      4.41024      6.32038      8.43626         0.029683     -0.068458      0.009013
O	      6.50288      8.39777      8.46810        -0.083134      0.008785     -0.061220
O	      6.39329      6.41777     10.44482         0.030385     -0.063517     -0.012530
O	      8.41643      8.49542     10.45169         0.046087     -0.057012     -0.003374
