# total energy = -232.23374929 eV
 
CRYSTAL
PRIMVEC
0.041940 6.290047 6.625390 
6.331371 0.045251 6.622417 
4.264674 4.233554 -0.011641 
PRIMCOORD
36 1
Li	     10.56702      4.26493      6.61000         0.034587     -0.075758      0.023145
Li	      8.53395     10.53130     11.03363        -0.043099      0.051071     -0.030620
Li	      8.40592      4.29424      8.80608        -0.035936      0.007319     -0.080040
Li	      6.34783      6.39185      4.55066         0.039385     -0.035209      0.112151
Li	      8.43250      6.32585      6.61765        -0.027913     -0.004613     -0.046831
Li	      6.40207      4.25847     10.99470         0.031638      0.057141      0.017822
Li	      4.31062      6.30602      6.64736         0.018135      0.020461      0.134889
Li	      4.30192      4.31042      8.78028        -0.017943      0.067565     -0.090633
Li	      6.37720      6.22548      8.78784        -0.067879      0.047038     -0.040902
Sc	      4.24931      8.40444      8.78901         0.270972     -0.329862     -0.034598
Ti	      6.40212      8.30267     11.05520        -0.336291     -0.076282     -0.273088
Mn	      4.23440      4.26323      4.45251         0.336810     -0.297897      0.209844
Mn	      6.36741      4.34965      6.67278        -0.179831      0.130898     -0.386410
V	     10.44910      6.45455      8.86209        -0.675844      0.147555      0.027877
Fe	      8.56724      8.48809     13.17436         0.212850     -0.126928      0.160039
Fe	      2.20890      6.29251      8.77949         0.121137     -0.156582      0.104555
Co	      6.45709      8.37694      6.60525        -0.030871      0.016486      0.008217
Cu	      2.15846      6.29341      4.43289        -0.035109      0.010645      0.133362
O	      2.05857      2.06097      2.09769        -0.408101      0.122529     -0.083933
O	      4.32221      4.26296      2.20681        -0.032699      0.565661      0.124966
O	      4.34745      2.16488      4.35247         0.575898      0.210407     -0.116865
O	      6.25015      4.16415      4.30543        -0.531801     -0.187222      0.000944
O	      6.38912      2.25030      6.51783         0.145217      0.072748      0.066471
O	      8.35198      4.17498      6.56173        -0.180107     -0.133611      0.049280
O	      2.27727      4.27939      4.49959         0.386589      0.192538     -0.047585
O	      4.24219      6.31144      4.23212        -0.276853     -0.021328     -0.726216
O	      4.34307      4.28269      6.56867         0.196755     -0.050190     -0.097090
O	      6.38830      6.30340      6.61181         0.069989      0.031512      0.030939
O	      6.37669      4.14484      8.85738        -0.006228     -0.862654      0.053085
O	      8.66116      6.32220      8.66595         1.348826      0.058366      0.197735
O	      2.16410      6.31901      6.79102        -0.032062      0.086033      0.125341
O	      4.26159      8.44636      6.68857        -0.250574     -0.032625      0.203604
O	      4.18185      6.35855      8.92177        -0.204076      0.236583      0.002395
O	      6.40531      8.45447      8.98301        -0.222794      0.019748      0.284839
O	      6.42833      6.43875     11.06101         0.147521      0.442519      0.012707
O	      8.40497      8.38684     11.15448        -0.340299     -0.204060     -0.029396
