# total energy = -231.98230271 eV
 
CRYSTAL
PRIMVEC
0.015134 6.283129 6.340645 
6.309091 0.021997 6.333520 
4.211966 4.189902 0.008984 
PRIMCOORD
36 1
Li	      4.18925      0.07728      4.25917        -0.026634     -0.007881     -0.031237
Li	      6.26570      2.10946      4.26620         0.011797      0.040694     -0.051113
Li	      6.31453      2.16265      8.44383        -0.015349     -0.024294      0.061039
Li	      2.16335      2.21072      4.32977        -0.021258     -0.033829     -0.006618
Li	      4.12581      4.11181      4.34605         0.070635      0.040315      0.048902
Li	      4.18831      2.14994      6.14579        -0.025049     -0.047874     -0.090799
Li	      4.27053      8.34174      4.28062        -0.006721     -0.009774      0.018761
Li	      2.14156      4.14246      6.20668        -0.021498     -0.014329      0.060301
Li	      4.28187      6.25003      6.28798         0.017539     -0.034788      0.002090
Sc	      6.30560      6.29829      8.45656         0.014684     -0.014529     -0.003829
Ti	      6.26653      4.28536      2.26276        -0.051010      0.088687      0.723427
Mn	      4.17611      2.14867      2.16777         0.042035     -0.048528     -0.003590
Mn	      6.32363      4.15802      6.28721        -0.020757      0.049037     -0.109315
V	      2.28877      6.25221      4.27712         0.222999      0.017448      0.076239
Fe	      6.27846      6.35855     12.57049        -0.099812     -0.015790      0.029787
Fe	      8.46657      8.36130      8.46703        -0.001367     -0.045977     -0.144731
Co	      8.41689      8.41887     12.62294         0.035453     -0.071559     -0.055173
Ni	      2.09266      4.15724      2.18950         0.039371      0.033765     -0.017403
O	      2.09787      2.02159      2.17033        -0.006730     -0.190235     -0.019576
O	      4.30477      4.23183      2.00623         0.153036      0.005772      0.041381
O	      4.22807      2.10517      4.02758        -0.026869      0.002027     -0.050902
O	      6.29188      4.18482      4.07316         0.029839      0.020632     -0.720416
O	      6.38373      2.15320      6.28983        -0.036349     -0.014316      0.082995
O	      8.40069      4.15808      6.39708        -0.030300      0.122344     -0.060755
O	      2.11463      4.29470      4.21284        -0.004671     -0.035760      0.135385
O	      4.05119      6.28308      4.30800        -0.106216     -0.031866     -0.017438
O	      4.37211      4.11453      6.45408        -0.038013      0.065109      0.002487
O	      6.33868      6.12493      6.38999         0.022339      0.019352      0.018597
O	      6.29196      4.22843      8.50699        -0.042171     -0.017718     -0.049158
O	      8.38889      6.29396      8.60291         0.016510      0.061695     -0.004936
O	      2.02580      6.36004      6.29044         0.059994     -0.032259      0.135404
O	      4.11288      8.49898      6.51392         0.068749     -0.032161      0.011631
O	      4.13284      6.25145      8.43486        -0.065625      0.039696     -0.038345
O	      6.37399      8.45873      8.35323        -0.061863      0.068362      0.032336
O	      6.42160      6.30594     10.61050        -0.024868      0.000472     -0.093138
O	      8.43067      8.27849     10.43312        -0.071849      0.048059      0.087709
