# total energy = -233.49664093 eV
 
CRYSTAL
PRIMVEC
-0.003983 6.351864 6.345204 
6.308947 -0.002666 6.343708 
4.198610 4.225961 0.005744 
PRIMCOORD
36 1
Li	      6.32147      6.41076     12.57630        -0.060299      0.009411     -0.026373
Li	      6.34080      2.13579      4.33415        -0.026139     -0.147904      0.132422
Li	     10.45926      6.41371      8.55457        -0.110659      0.078219     -0.011066
Li	      6.25014      6.29397      4.32228         0.047334      0.151174      0.040436
Li	      4.21579      4.30452      4.29806        -0.139316     -0.031647     -0.027319
Li	      6.26918      4.19020      6.29591         0.027471     -0.085026      0.149805
Li	      4.16962      8.39154      4.24798        -0.015789      0.022278      0.058412
Li	      2.17593      6.37166      4.26687        -0.010820      0.005737     -0.058604
Li	      4.25699      4.15313      8.38718         0.065624     -0.125346     -0.101342
Sc	      2.06290      4.23346      2.26991         0.173015      0.071512     -0.083008
Ti	      6.31665      6.29061      8.51006         0.462486     -0.323206      0.039735
Mn	      8.33694      2.13317      6.34126         0.133759      0.312198     -0.275803
Mn	      8.36396      4.20852      4.27791         0.845648      0.006953      0.290345
V	      4.24378      2.16578      2.12092        -0.671180     -1.678727     -0.189934
Fe	      6.28716      4.17722      2.16196        -0.119683      0.187537     -0.145005
Fe	      4.23685      6.24389      6.13615         0.046240      0.210460      0.152237
Co	      4.29812      2.17694      6.27294         0.042796     -0.138887      0.042340
Co	      2.11055      4.24119      6.19920        -0.161323     -0.102764      0.264778
O	      2.20755      2.13056      1.98694        -0.945904     -1.022142      0.206317
O	      4.17051      3.99979      2.18717         1.507992      2.279090      0.091436
O	      4.21970      1.97462      4.13806        -0.089475     -0.197611      0.139677
O	      6.45394      4.21065      4.14088        -0.497697     -0.043643     -0.972595
O	      6.39649      2.09750      6.42529        -0.493862      0.009286     -0.074711
O	      8.43701      4.13464      6.43284        -0.010581      0.500292     -0.005352
O	      2.06521      4.25916      4.23951         0.066582     -0.027944      0.470143
O	      4.20913      6.34220      4.27668         0.036282     -0.013399     -0.195757
O	      4.16943      4.26392      6.33971        -0.144564     -0.008808     -0.116926
O	      6.27487      6.34881      6.43374        -0.051826      0.059528     -0.000737
O	      6.29355      4.39381      8.48485        -0.029809      0.284598     -0.003843
O	      8.26485      6.33903      8.42757        -0.277333      0.032829      0.146617
O	      2.14050      6.48522      6.38966         0.006771     -0.730566      0.664197
O	      4.12506      8.41602      6.46176         0.221527     -0.085933     -0.045922
O	      4.28285      6.48776      8.34261        -0.973541     -1.033658      0.056845
O	      6.20044      8.37449      8.34166         1.306285      1.391918     -0.301021
O	      6.15449      6.38571     10.40677        -0.058731      0.044658     -0.167323
O	      8.38992      8.58212     10.78697        -0.101282      0.139533     -0.143103
