# total energy = -230.13015223 eV
 
CRYSTAL
PRIMVEC
0.014095 6.368353 6.225163 
6.425686 0.042938 6.196809 
4.306096 4.247608 0.007038 
PRIMCOORD
36 1
Li	      8.53210      8.49428     12.39022         0.019324      0.014886     -0.018928
Li	      2.30018      6.28218      8.30118         0.058260      0.025718     -0.074904
Li	      8.50119     10.53978     10.27273        -0.079311     -0.068635      0.027579
Li	      6.44770      2.17914      8.26230         0.004074      0.013069      0.006159
Li	      6.43094      6.28698      4.21465        -0.015818     -0.007084     -0.002727
Li	      6.40659      4.28322      6.19508         0.016399     -0.055958      0.119219
Li	      4.34009      6.28433      6.29957        -0.010213     -0.052841     -0.014250
Li	      4.23532      4.48437      8.28684         0.022460      0.047806      0.000153
Li	      6.35634      6.38575      8.28343        -0.051864     -0.001660      0.005552
Sc	      4.36590      8.37587      8.33555        -0.049323     -0.026446     -0.026408
Ti	      8.45417      6.43167      6.22552        -0.346748      0.001489      0.035538
Mn	      6.44776      0.11605      6.17543        -0.029948     -0.097544     -0.010809
Mn	      6.44547      4.30080     10.33040        -0.095446     -0.137990     -0.010891
V	      2.09632      4.15039      2.07800        -0.015239     -0.017086      0.000183
Fe	      4.47510      4.32226      4.15715        -0.420526     -0.099652     -0.037068
Fe	      8.61367      6.50775     10.33584         0.072586     -0.018987     -0.073078
Cu	      6.51365      8.54060     10.30485         0.024682      0.073396     -0.010361
Ni	      6.48482      8.53407      6.27514         0.090068      0.011243     -0.170813
O	      2.16649      2.34726      2.04300         0.011260     -0.176300     -0.016171
O	      4.13386      4.21695      2.18130         0.013181      0.048405     -0.002436
O	      4.15494      2.21040      4.23474        -0.099779      0.020887      0.067257
O	      6.35588      4.18786      4.15114         0.415829      0.030070      0.041293
O	      6.35137      2.04357      6.11537        -0.062541      0.099433      0.122456
O	      8.67936      4.39472      6.28556         0.006221      0.080032     -0.042605
O	      2.03803      4.33201      4.10402         0.177399      0.043792      0.003922
O	      4.21404      6.26657      4.21986         0.084816     -0.030914     -0.000839
O	      4.28098      4.13388      6.19375         0.108234     -0.109469      0.058201
O	      6.59578      6.42651      6.23305         0.209525     -0.153747      0.056309
O	      6.59008      4.25887      8.38287        -0.038074     -0.013893     -0.182140
O	      8.63000      6.21737      8.21370         0.037605      0.092546     -0.051413
O	      2.03369      6.36325      6.15583        -0.001144      0.134781      0.053979
O	      4.36636      8.68199      6.15392        -0.051514      0.112353      0.132663
O	      4.26666      6.44514      8.26108         0.058147     -0.052077     -0.006297
O	      6.41596      8.54377      8.31027        -0.100049     -0.004533      0.057546
O	      6.59654      6.52054     10.27670         0.019467      0.178182      0.012885
O	      8.83496      8.46879     10.32257         0.018002      0.096729     -0.048751
