# total energy = -103.34820249 eV
 
CRYSTAL
PRIMVEC
2.023659 4.219413 2.058349 
4.110580 -2.124434 -2.091657 
-0.010382 4.287589 -4.240759 
PRIMCOORD
16 1
Li	      2.05061      4.27208      1.89598        -0.003419      0.013091     -0.002498
Li	      2.01506      2.25946     -0.11291        -0.021645      0.002541     -0.014017
Li	      4.20853      2.11490     -2.12029        -0.010247     -0.032916      0.009803
Li	      2.01418      6.18169      0.02986         0.003766      0.000415      0.026353
Ti	      2.09910      2.14175     -4.11550         0.097089      0.026957      0.206783
Ti	      4.18324      4.34733     -4.37006         0.118718      0.078923     -0.302672
Ni	      4.01963      4.19722     -0.04747         0.088456     -0.009982     -0.003234
Ni	      1.97430      4.24057     -2.07894        -0.056193     -0.055404     -0.079981
O	      2.01246      2.13110     -2.23569         0.017234     -0.012842     -0.248008
O	      4.06840      4.39213     -2.19909         0.107806      0.086508     -0.089196
O	      2.09509      4.12488     -4.23695         0.016616     -0.078151      0.033964
O	      4.07061      1.98341      0.08152         0.008241     -0.188669      0.019800
O	      4.04494      0.00057     -1.97982         0.139065      0.006291      0.297492
O	      2.05955      4.22081     -0.09437        -0.155762      0.006527      0.147213
O	      4.01485      2.29583     -4.19141        -0.246744      0.054575      0.000354
O	      1.98485      6.35148     -2.17405        -0.102980      0.102135     -0.002157
