# total energy = -228.15791436 eV
 
CRYSTAL
PRIMVEC
-0.000432 6.301357 6.492992 
6.077937 -0.002658 6.495486 
4.066061 4.216067 -0.016130 
PRIMCOORD
36 1
Li	      4.06298      4.24396      0.03246        -0.006222      0.059679      0.000552
Li	      4.04764      2.19715      2.12173        -0.000205     -0.006094      0.038911
Li	      6.05867      2.14480      8.66075        -0.000542      0.000098      0.013758
Li	      4.07216      4.19326      4.24314         0.050523     -0.003593     -0.029397
Li	      6.14478      4.13944      6.69044         0.012963     -0.018586      0.078169
Li	      6.06115      4.22843     10.69379        -0.037527      0.024719     -0.051364
Li	      8.05616      6.36559     10.73629        -0.032112      0.011462     -0.058348
Li	      4.19183      4.12725      8.72153         0.022659     -0.033753      0.075899
Li	      6.16254      6.21107      8.77854        -0.000597      0.030315      0.042135
Sc	      4.05916      6.22943      6.59310         0.005498     -0.063411      0.072773
Ti	      1.95043      2.13363      4.23877        -0.209474     -0.148617     -0.319243
Mn	      4.10330      6.31419     10.73306         0.028176     -0.000510     -0.105880
Mn	      8.12909      4.28124      8.67505         0.103401      0.030314      0.029896
V	      6.03066      8.42273      6.51988        -0.108882      0.120802      0.369120
Fe	      8.06696      2.17781      6.37757        -0.186297     -0.071421      0.039110
Fe	      4.17510      2.11785      6.57853         0.101554     -0.234792     -0.137728
Cu	      5.97026      4.20579      2.17033         0.021360     -0.084373      0.071622
Cu	      6.06393      8.38910     10.79340         0.028113      0.226844     -0.057886
O	      2.05844      2.27579      2.31506         0.028897      0.156036      0.084072
O	      4.04035      4.19745      2.21423        -0.179210      0.040802     -0.030454
O	      4.06073      2.07180      4.46181        -0.361015      0.010101      0.095588
O	      6.20088      4.29401      4.25550         0.004708      0.269244      0.072255
O	      6.13788      2.12007      6.59079        -0.038717      0.013148      0.144139
O	      8.14053      4.18638      6.43067         0.006948      0.136436      0.010067
O	      2.02093      4.07760      4.52317        -0.007328      0.022696      0.169033
O	      4.18848      6.24930      4.41409         0.209621      0.003242      0.049682
O	      3.98296      4.14001      6.49975        -0.356484      0.101902      0.006660
O	      6.14213      6.38081      6.33080        -0.044115      0.247263      0.043375
O	      6.22806      4.24574      8.69490        -0.059939      0.012276     -0.029184
O	      8.13097      6.23475      8.52863         0.017613      0.043241      0.065865
O	      1.99253      6.25382      6.42767        -0.084899     -0.428397     -0.057324
O	      3.99740      8.33755      6.44685         0.609396      0.099732      0.064560
O	      3.89198      6.26546      8.63643         0.140083     -0.003899     -0.070320
O	      6.01557      8.31482      8.28657         0.020525     -0.133670     -0.663478
O	      5.97302      6.42230     10.72261        -0.070833     -0.487863      0.060548
O	      8.03172      8.44459     10.88650         0.372360      0.058625     -0.087181
