# total energy = -229.12187432 eV
 
CRYSTAL
PRIMVEC
-0.035155 6.465558 6.439569 
6.142852 -0.010545 6.414854 
4.083729 4.282311 0.004477 
PRIMCOORD
36 1
Li	      4.06947     10.60213      6.40863        -0.017601     -0.010200     -0.000025
Li	      2.12340      8.57478      6.38273         0.025627     -0.011137     -0.003392
Li	      4.06992      8.39564      8.45190         0.012752     -0.021514      0.008965
Li	      4.17546      6.30849     10.50838         0.005326     -0.067273      0.015387
Li	      8.15594      6.45209      6.51326        -0.021034      0.016552      0.052414
Li	     10.12251      8.73259     10.86131         0.035569      0.027318      0.078712
Li	      4.05250      6.54164      6.63241         0.024244      0.000996     -0.026812
Li	      4.09343      4.49611      8.60597         0.009193      0.002139      0.003580
Li	      5.93814      6.43216      8.62546         0.081724      0.008204     -0.002648
Sc	      6.09885      8.51865     10.63878         0.045047     -0.050106     -0.021420
Ti	      6.13733      6.45196      4.34120         0.058235     -0.021518      0.141420
Mn	     10.18132      6.41219      8.51817        -0.095772      0.010108     -0.047016
Mn	      6.07475      8.62394      6.56167         0.035069     -0.026232      0.028124
V	      6.19657      4.26224      6.46159         0.000702      0.046362     -0.070836
Fe	      4.04814      4.31444      4.29121         0.057552      0.002170     -0.021342
Fe	      8.14845      6.56213     10.77233         0.091849     -0.065733     -0.054191
Ni	      2.09442      6.45970      8.45634        -0.092194      0.023735     -0.002810
Ni	      8.17176      4.27600      8.53687        -0.008649     -0.025049     -0.016162
O	      1.92675      2.16443      2.28010         0.013631     -0.008506      0.029382
O	      4.09953      4.43824      2.24528         0.015693      0.034585     -0.030911
O	      3.97376      2.27239      4.23321        -0.147844     -0.019321     -0.022621
O	      6.08843      4.37952      4.36094         0.027001      0.058605     -0.010697
O	      6.07941      2.33356      6.32828        -0.010002     -0.037214      0.009244
O	      7.99315      4.31880      6.44882         0.099266      0.005769     -0.066457
O	      2.03582      4.17931      4.28624        -0.076284     -0.066848      0.113252
O	      4.12938      6.35226      4.31697         0.034721      0.039938      0.003681
O	      4.09374      4.28421      6.30370        -0.078492     -0.013780      0.078231
O	      6.12864      6.36655      6.27306        -0.000209     -0.020623     -0.143451
O	      6.10038      4.14059      8.38625        -0.108066     -0.016362      0.039599
O	      8.26497      6.30879      8.72004        -0.004970      0.092249     -0.055455
O	      2.03255      6.39655      6.34166         0.001502      0.039454      0.009094
O	      4.22548      8.61620      6.46626        -0.019407     -0.014868      0.019794
O	      4.03109      6.45443      8.60200         0.164578      0.012499     -0.025050
O	      6.11474      8.66312      8.58730        -0.030686     -0.093444     -0.011853
O	      6.17910      6.50218     10.70535        -0.105355      0.015776      0.024599
O	      8.15936      8.49347     10.74681        -0.022717      0.153269     -0.022326
