# total energy = -236.41973304 eV
 
CRYSTAL
PRIMVEC
-0.008571 6.323055 6.333018 
6.383213 -0.015934 6.340483 
4.238547 4.203384 0.006387 
PRIMCOORD
36 1
Li	      0.12324      6.28817      6.27984        -0.024660     -0.047363     -0.015251
Li	      2.14103      6.28616      8.37484         0.024830     -0.007084     -0.017759
Li	      6.26153      6.33801      4.31423        -0.000995     -0.018675      0.057526
Li	      4.18231      4.30840      4.31880        -0.036151     -0.043164      0.029655
Li	      6.30527      4.24684      6.26973         0.010489      0.044051     -0.047404
Li	      0.13195      4.21269      4.31184        -0.047833     -0.007503      0.028640
Li	      2.11912      6.19444      4.35735         0.030771      0.042612     -0.067165
Li	      2.13402      4.30599      6.22149         0.030810      0.024447      0.007251
Li	      4.17810      6.25893      6.22955        -0.037196      0.042010     -0.049789
Sc	      4.21830      2.17736      6.29114        -0.058252      0.086388     -0.038196
Ti	      4.29860      6.26729      2.28973         0.051538     -0.066298      0.933046
Mn	      2.13279      8.32520      6.30080         0.062646     -0.040095     -0.014737
Mn	      2.09880      4.20653      2.22054         0.028470     -0.000350      0.087901
V	      4.22394      2.15591      2.07282        -0.024231     -0.001239     -0.019262
Fe	      8.45194      4.16383      4.27862         0.031930      0.037910      0.028599
Fe	      6.40439      8.44370     10.55394        -0.031036      0.013804     -0.018399
Fe	      4.27500      4.28656      8.35395        -0.082294     -0.068635      0.068595
Fe	      6.28673      6.30388      8.42255         0.132065      0.093875     -0.021021
O	      2.01532      2.05741      2.13854        -0.111987     -0.053308      0.014690
O	      4.15446      4.21755      2.16304        -0.101944      0.148862     -0.000101
O	      4.31809      2.04126      4.19864         0.009377     -0.026856     -0.030797
O	      6.49511      4.10041      4.24049        -0.080289      0.018546     -0.001880
O	      6.40906      2.04237      6.30968         0.049362     -0.015094      0.106465
O	      8.51083      4.09546      6.37990        -0.011740      0.008022      0.012913
O	      2.10425      4.20888      4.09120         0.005073     -0.029288     -0.026653
O	      4.25738      6.29456      4.09537        -0.014708      0.027402     -0.788132
O	      4.23738      4.18854      6.37252         0.039240     -0.095200     -0.173089
O	      6.43284      6.27619      6.49243         0.021592      0.024218     -0.032668
O	      6.44184      4.11190      8.47249         0.182222      0.005573     -0.018215
O	      8.63670      6.31625      8.39989        -0.004245     -0.049495      0.020825
O	      2.13090      6.45407      6.29696        -0.042598     -0.032125      0.068591
O	      4.11463      8.42941      6.48980         0.018560     -0.034924     -0.099099
O	      4.28284      6.43669      8.52894         0.014453      0.039344     -0.019520
O	      6.30648      8.37018      8.50555        -0.119487     -0.020068     -0.020374
O	      6.28050      6.35932     10.44934         0.044364      0.030851     -0.060105
O	      8.42568      8.48454     10.45341         0.041857     -0.031149      0.114921
