# total energy = -229.82495510 eV
 
CRYSTAL
PRIMVEC
0.005771 6.230563 6.155067 
6.630250 -0.022577 6.183590 
4.415352 4.167198 -0.010622 
PRIMCOORD
36 1
Li	      4.42330     10.34828      6.10608         0.032548     -0.018421      0.027616
Li	      4.61496      8.20748      8.21150         0.007368      0.009934     -0.019695
Li	      6.62776      6.27092      4.31794        -0.020434      0.027657     -0.026285
Li	      8.49569      6.32977      6.16810         0.005706     -0.003093     -0.030467
Li	      6.47165      4.39641      6.11730        -0.035052     -0.011827      0.008901
Li	      2.29779      6.14851      4.11974         0.090907     -0.009651     -0.010119
Li	      6.78189      8.12290      6.20396         0.024481      0.007095     -0.002860
Li	      4.72910      6.16895      6.09721        -0.041269      0.024682     -0.021123
Li	      6.45416      6.31739      8.06231        -0.016472     -0.014635      0.010811
Sc	      6.64661     10.29021      8.23166        -0.025912      0.152925     -0.034712
Ti	      2.32016      8.23008      6.09793         0.086826     -0.093572      0.089654
Mn	      4.40134      0.06264      4.16956        -0.069200      0.017387      0.062677
Mn	      8.85897      4.19871      8.16591        -0.005502     -0.063142     -0.013519
Mn	      0.06141      4.16606      4.09616         0.073915     -0.003241      0.003311
V	      6.58873      2.07714      8.14295        -0.016178     -0.037464      0.089299
Co	      4.31692      4.08764      4.22665         0.115029      0.183105      0.110412
Ni	      6.59700      2.01878      4.18076         0.007133     -0.025164      0.088924
Ni	      4.37014      4.11916      8.13909        -0.000951     -0.091921     -0.026020
O	      6.60112      6.26762      6.18866        -0.020744      0.020179      0.008694
O	      2.10901      2.17799      1.91884        -0.014817      0.000281     -0.015666
O	      4.50744      4.24799      2.17237        -0.061188     -0.014125     -0.062518
O	      4.54657      1.96902      4.16073        -0.139799     -0.112285     -0.008492
O	      6.82929      4.15091      4.14385         0.060620      0.067445      0.041190
O	      6.79695      2.03326      6.31970        -0.004587     -0.006789     -0.122475
O	      8.86250      4.03541      6.17887         0.028547     -0.016361     -0.096109
O	      2.22087      4.19865      3.89925        -0.077548     -0.024736      0.015086
O	      4.46798      6.35449      3.89832         0.008851     -0.059710      0.062870
O	      4.41006      4.18372      6.12867         0.004505      0.055028     -0.087653
O	      6.52693      4.05931      8.32454         0.089546      0.061389     -0.016495
O	      9.07140      6.15967      8.16570         0.053302     -0.074827      0.003367
O	      2.14046      6.37701      6.15783         0.008628      0.042521     -0.012835
O	      4.21744      8.27989      6.04546        -0.091527      0.021058     -0.017264
O	      4.33921      6.21145      8.40515         0.057586      0.087849      0.045623
O	      6.69671      8.31051      8.27804        -0.110683     -0.075929     -0.104299
O	      6.38462      6.12411     10.29883        -0.048941     -0.024038     -0.021289
O	      8.72176      8.38804     10.33118         0.045305      0.002393      0.081459
