# total energy = -232.71634573 eV
 
CRYSTAL
PRIMVEC
0.007295 6.269652 6.278957 
6.432035 0.011418 6.274044 
4.297369 4.186093 -0.001162 
PRIMCOORD
36 1
Li	      4.28851     10.32723      6.30807        -0.005931      0.057044     -0.119121
Li	      2.31229      8.44032      6.22673         0.012608      0.068178     -0.088255
Li	      4.30306      8.37486      8.31348         0.122661     -0.074811      0.051789
Li	      8.64140     10.40130     10.50873         0.157409      0.015944     -0.048815
Li	      6.45983      2.11969      4.22357         0.011986     -0.185258     -0.008180
Li	      2.11755      2.17444      4.14241         0.050565     -0.006777      0.023320
Li	      4.29057      4.16597      4.12092        -0.022287     -0.025126     -0.018998
Li	      6.44400      4.18087      6.22006         0.045613     -0.002449      0.043625
Li	      4.27993      8.33199      4.22889        -0.017088      0.206860     -0.076534
Sc	      2.15470      6.24336      4.29939        -0.616925      0.048136     -0.053506
Ti	      4.31625      2.04900      6.12846        -0.027910     -0.109469     -0.541774
Mn	      0.02169      2.09137      2.08408        -0.077855      0.178046     -0.067503
Mn	      2.17000      4.10318      2.06570        -0.150876      0.116339     -0.028390
Mn	      8.54472      8.39364      8.43175        -0.023938      0.176552      0.204635
V	      6.46074      4.25552      2.25625         0.334870     -0.296931     -0.056146
Co	      4.35611      6.31750      6.23524        -0.092283      0.102219     -0.031639
Co	      6.29928      6.27628      8.46713         0.449982     -0.119216     -0.514953
Cu	      6.38333      8.34591      6.25882         0.059798     -0.057084      0.098175
O	      2.18133      2.09811      2.01128        -0.280250      0.031933     -0.024182
O	      4.49812      4.28422      2.04317        -0.091954      0.200565      0.027006
O	      4.28751      2.11847      4.34977        -0.045912      0.065425      0.517134
O	      6.46705      4.26761      4.00549        -0.071196      0.018736      0.099687
O	      6.22477      2.14732      6.39225        -0.192136     -0.020247      0.115897
O	      8.56087      4.27938      6.36864        -0.005392      0.137615      0.056199
O	      2.17224      4.16314      3.96230         0.094769     -0.082486     -0.011004
O	      4.25848      6.23742      4.05393         0.049304     -0.020418      0.028948
O	      4.16772      4.13055      6.42045        -0.041061     -0.150371     -0.066950
O	      6.50235      6.31824      6.47181         0.045985      0.073831     -0.033368
O	      6.24511      4.15505      8.34703         0.072115     -0.609369     -0.006121
O	      8.48659      6.13661      8.35492         0.233302     -0.014301      0.057778
O	      2.22245      6.22414      6.35220        -0.058570      0.059514      0.103717
O	      4.43830      8.31230      6.21803         0.044699      0.021177      0.023940
O	      4.24782      6.35245      8.37273        -0.191041     -0.071398     -0.220494
O	      6.56884      8.49271      8.48170         0.041674      0.366936     -0.102204
O	      6.46579      6.28656     10.29396         0.156422     -0.012360      0.646146
O	      8.57852      8.32673     10.36882         0.028843     -0.086981      0.020139
