# total energy = -96.30156713 eV
 
CRYSTAL
PRIMVEC
-0.015809 2.115434 2.096100 
2.098206 -2.116594 -0.014532 
12.996726 10.918974 0.028728 
PRIMCOORD
16 1
Li	      2.47601      0.40517      1.68663         0.060954      0.085377     -0.095215
Li	      2.18954      2.23260     -0.11553        -0.072595     -0.076891      0.088857
Li	      6.45701      4.36743     -2.28342        -0.009126      0.000278      0.006521
Li	      8.28405      6.19750     -6.19486         0.027186      0.040763     -0.022069
Ti	     10.72837      8.66240     -6.55788        -0.074974     -0.041841      0.069495
Ti	     12.91061      8.72454     -8.74084         0.091219      0.063345     -0.082674
Ni	      4.37620      2.26976     -2.29064         0.006591     -0.001284     -0.002811
Ni	      6.39919      6.42482     -4.31346         0.003819     -0.003434     -0.007852
O	     10.77715      8.69243     -8.68897        -0.001140      0.003285     -0.002982
O	      8.46401      6.41630     -4.29114         0.065520      0.058534     -0.076784
O	     10.83430      6.67124     -6.66284         0.087825      0.077145     -0.080190
O	      6.48941      4.37892     -4.40627        -0.091701     -0.100582      0.103778
O	      4.52609      2.30682     -0.36206        -0.119677     -0.059803      0.138331
O	      4.22329      4.37460     -2.13550         0.133754      0.037351     -0.151774
O	     12.78305     10.69493     -8.61412        -0.124770     -0.111432      0.114921
O	      2.24023      0.13341     -0.16206         0.017116      0.029189      0.000448
