# total energy = -235.35352441 eV
 
CRYSTAL
PRIMVEC
-0.004629 6.269813 6.327782 
6.331917 0.005135 6.318258 
4.236380 4.188232 -0.011454 
PRIMCOORD
36 1
Li	      4.21317     10.42977      6.30703        -0.029520     -0.007307      0.009641
Li	      8.44497      8.36958     12.56739        -0.020881     -0.005234      0.029488
Li	      4.27142      8.34519      8.31915        -0.042855      0.013516     -0.032879
Li	      6.36623      2.07496      4.33505         0.063141     -0.036502      0.039425
Li	      6.31489      2.08695      8.39524         0.055210     -0.009716      0.028073
Li	      4.25289      8.33621      4.31032         0.029679     -0.031738     -0.032883
Li	      2.16145      6.28013      4.26047         0.008308      0.023771     -0.012243
Li	      4.20819      6.36965      6.22144         0.019438      0.042507     -0.029199
Li	      6.37789      6.26473      8.42040         0.023921     -0.014762      0.012472
Sc	      4.30943      4.13101      8.46834         0.107623     -0.006531      0.071376
Ti	      2.07981      0.10670      2.03756        -0.106260      0.485885     -0.064406
Mn	      4.21498      4.21541      4.22422        -0.058913      0.115353     -0.123096
Mn	      8.49426      6.24113      6.34587        -0.035593     -0.061192      0.039808
Mn	      6.25122      8.39010      6.30412        -0.174392      0.015495     -0.189847
V	      4.36497      6.21908     10.56802        -0.234107     -0.038260      0.147613
Co	      6.27295      6.29741      4.17850         0.088415     -0.166444      0.079422
Co	      8.40448      4.16281      8.42946        -0.059886     -0.049965     -0.078281
Co	      6.33283      4.14616      6.30108         0.190186     -0.110135      0.097850
O	      2.13733      2.01615      2.08399        -0.062587     -0.256100     -0.174472
O	      4.34872      4.15382      2.25461         0.083875     -0.037385      0.046680
O	      4.17393      2.12911      4.33621        -0.434012      0.003130     -0.054604
O	      6.48442      4.16891      4.16177        -0.036645      0.257252     -0.098232
O	      6.16029      2.11588      6.31732        -0.116255      0.066307     -0.067334
O	      8.43657      4.11301      6.22433        -0.025176     -0.008548     -0.122349
O	      2.05261      4.22735      4.33293        -0.048189     -0.336128      0.143818
O	      4.26133      6.11367      4.21339         0.558490      0.058017     -0.028707
O	      4.11545      4.26750      6.25354        -0.082537      0.022035      0.034985
O	      6.46403      6.40086      6.30687         0.012312      0.092205      0.109089
O	      6.34120      4.21137      8.32280        -0.057287      0.029092      0.161608
O	      8.44683      6.25073      8.35057        -0.002544      0.002867      0.000141
O	      2.05962      6.20273      6.45613         0.008009     -0.093192      0.146322
O	      4.41168      8.33977      6.31820         0.199073      0.007351      0.006482
O	      4.07116      6.25522      8.56775        -0.005963     -0.003910     -0.035388
O	      6.38755      8.47313      8.24652         0.027282     -0.007652      0.024995
O	      6.10154      6.34241     10.49929         0.200682      0.056668     -0.058308
O	      8.46930      8.45253     10.50469        -0.042043     -0.010747     -0.027059
