# total energy = -226.47571513 eV
 
CRYSTAL
PRIMVEC
0.024928 6.204335 6.383680 
6.203333 -0.018244 6.427387 
4.138930 4.168613 -0.015621 
PRIMCOORD
36 1
Li	      4.19617     10.35100      6.38818        -0.010884     -0.023337      0.064639
Li	      2.13306      6.18540      8.37992         0.003017      0.005736     -0.002250
Li	      4.26256      6.10084     10.65987         0.004905      0.033216     -0.004885
Li	      8.28844      4.15816      8.47495        -0.005668     -0.010605     -0.032117
Li	      8.28729      6.18311      6.46173         0.004297      0.002670     -0.027436
Li	      8.22787      6.29878     10.78238         0.050653     -0.021101      0.046270
Li	      2.07802      4.21366      6.43160        -0.012702      0.026339      0.013711
Li	      4.03408      6.26966      6.48081         0.038420     -0.021152      0.028358
Li	      8.25430      8.30058      8.59343         0.010655      0.004503      0.038703
Sc	      6.29155      4.11505      6.40956        -0.003222      0.040901     -0.006002
Ti	      4.02948      4.19389      4.34820        -0.087485      0.055667      0.191397
Mn	      4.17611      8.28222      8.49247        -0.044240      0.018829      0.093130
Mn	     10.23744      6.16668      8.48455         0.049657     -0.006087      0.012646
Mn	      6.26427      6.20878      8.51084         0.009182      0.031465     -0.123419
V	      2.08906      2.06696      4.28731        -0.002366      0.018417      0.058016
Cu	     10.31404      8.35432     10.72247         0.151998     -0.021108      0.051930
Ni	      2.13183      8.24613      6.33666         0.003294      0.045757      0.121906
Ni	      6.31205      8.23574     10.65100        -0.090684      0.057371     -0.014651
O	      2.08210      6.37194      6.39547        -0.018023     -0.197791     -0.003310
O	      2.17756      2.04939      2.29275        -0.010935     -0.001799     -0.112073
O	      4.12615      4.06254      2.28476        -0.004363     -0.053555      0.006600
O	      4.16387      2.16549      4.14302         0.034510      0.061985      0.095251
O	      6.10371      4.20574      4.29668        -0.022279     -0.039638      0.029748
O	      6.27622      2.02050      6.39316        -0.040993     -0.009097     -0.017721
O	      8.30342      3.96766      6.39219        -0.010517      0.122176     -0.030416
O	      2.04891      4.05170      4.32433         0.125151      0.079066     -0.002385
O	      4.15742      6.15554      4.15606        -0.124552     -0.146246      0.033171
O	      4.14318      4.12598      6.19565        -0.014495      0.010886     -0.239390
O	      6.26436      6.18714      6.36142        -0.044914     -0.010014      0.125074
O	      6.17703      4.22646      8.46806         0.002988      0.051620     -0.095698
O	      8.18221      6.21480      8.45949        -0.077267      0.008947     -0.014801
O	      4.09200      8.30943      6.59725         0.065242      0.008411     -0.086133
O	      4.29192      6.34042      8.51743         0.008252     -0.014895      0.014230
O	      6.15525      8.20136      8.55460         0.024467     -0.046725     -0.043367
O	      6.25382      6.18816     10.42977         0.027682     -0.064689     -0.036897
O	      8.35026      8.28850     10.73065         0.011219      0.003875     -0.131829
