# total energy = -227.66976123 eV
 
CRYSTAL
PRIMVEC
-0.005978 6.164298 6.448389 
6.300001 0.001313 6.440628 
4.196098 4.100559 0.004524 
PRIMCOORD
36 1
Li	     10.44110      4.11988      6.43596         0.016174     -0.001107     -0.062107
Li	      6.32194     10.15550      8.64237         0.022581      0.020180      0.033696
Li	      6.24251      2.09393      4.27701        -0.033635      0.007715     -0.006281
Li	      4.18955      4.08909      4.43815        -0.011058      0.012429      0.141986
Li	      4.18506      2.15247      6.42189        -0.024939      0.086024     -0.052511
Li	      6.25405      4.10935      6.47489        -0.012955      0.032009      0.000429
Li	      6.38800      8.18410      6.55163         0.005260      0.000567      0.068003
Li	      4.15057      4.13745      8.53931        -0.035723      0.007880      0.034158
Li	      6.28969      6.17899      8.55617        -0.026721      0.035180     -0.018237
Sc	      6.30464      2.04616      8.50695         0.070758     -0.086245     -0.031328
Ti	      8.25070      6.08639     10.72924        -0.227186      0.033625      0.169681
Mn	      8.36980      8.24811     12.79586         0.041387     -0.420961      0.046249
Mn	      4.25218      2.08239      2.19755        -0.042092     -0.107548      0.047012
Mn	      4.22319      6.08350      6.53562         0.051115     -0.019230     -0.044729
V	      6.32007      6.04435      4.37916        -0.084030      0.163066     -0.004488
Cu	      4.23580      6.12341     10.69603        -0.059142     -0.121573     -0.073231
Cu	      8.38894      4.13755      8.50999         0.038900     -0.108914     -0.080264
Ni	      6.31493      4.10264     10.66286        -0.042274     -0.015108      0.136617
O	      2.16840      2.10181      2.28267         0.106274      0.064158     -0.106836
O	      4.11187      4.01605      2.08779         0.030320     -0.007089     -0.024982
O	      4.08335      2.12935      4.17495         0.226768      0.065427     -0.087326
O	      6.23905      4.30317      4.26566        -0.171148     -0.351618     -0.022404
O	      6.42671      2.04580      6.47936        -0.045476      0.014563     -0.056207
O	      8.42908      3.96123      6.19552        -0.011073      0.402502      0.106969
O	      2.06815      4.13079      4.42719         0.131717      0.090847     -0.045875
O	      4.26648      6.17108      4.26367        -0.163628     -0.113257     -0.089576
O	      4.19713      4.22835      6.54076        -0.002165     -0.137524      0.011991
O	      6.21212      6.17102      6.28334         0.123028     -0.003580      0.231697
O	      6.42193      4.09560      8.63188        -0.024884      0.108419     -0.210950
O	      8.44581      6.11469      8.73311        -0.070567      0.068820     -0.066504
O	      2.20135      6.25317      6.29193        -0.159102      0.015551     -0.030089
O	      4.08178      8.09878      6.62860         0.034642      0.075410      0.062441
O	      4.18973      6.30805      8.71657        -0.053077      0.110334      0.054858
O	      6.07073      8.25276      8.62232        -0.030223     -0.050351      0.032892
O	      6.42837      6.12731     10.77352         0.475320      0.134075     -0.031171
O	      8.45937      8.06040     10.65389        -0.043148     -0.004680     -0.033583
