# total energy = -227.34037714 eV
 
CRYSTAL
PRIMVEC
-0.020788 6.223766 6.459479 
6.416711 -0.008547 6.447127 
4.259683 4.123503 0.013056 
PRIMCOORD
36 1
Li	     10.44063      4.18809      6.43654         0.084995     -0.111147      0.004724
Li	      8.57220      2.14476      6.45043        -0.031335     -0.042339     -0.003595
Li	      8.56578      4.10539      4.39161        -0.049545      0.001265      0.001066
Li	      6.38326      2.08841      4.29887         0.009355      0.000468     -0.048548
Li	      8.48191      4.19156      8.43640        -0.041081     -0.087395     -0.009781
Li	      6.36708      6.18598      4.35329        -0.031862      0.022556     -0.015811
Li	      4.38190      4.10149      4.26939         0.031144      0.027551     -0.000483
Li	      8.66523      6.06019      6.46868        -0.019993      0.068857      0.029711
Li	      6.43687      6.23650      8.58100        -0.024761     -0.001107      0.012748
Sc	      6.53095      4.12658      6.34412         0.031247     -0.047110      0.007901
Ti	      8.37185      6.11568     10.73497        -0.072389      0.029260     -0.061331
Mn	      4.23253      6.15079      2.14287         0.098092     -0.092212      0.005967
Mn	      4.29185      6.26132      6.44868        -0.052453      0.110093     -0.019104
Mn	      8.51513      8.26625      8.61630        -0.002976      0.091133     -0.085338
V	      4.06848      2.10650      2.28497        -0.209530      0.152723     -0.272037
Cu	      6.40141      4.05714      2.30792         0.029492      0.280571      0.113685
Cu	     10.64633      8.25948     10.75653         0.035009      0.046976      0.014632
Cu	      2.14208      4.13695      6.42095        -0.050620     -0.042513      0.010255
O	      2.02958      4.19145      4.40684         0.011233     -0.023457      0.006605
O	      2.27941      2.12681      2.23792        -0.039696     -0.050600      0.034477
O	      4.39560      4.00295      2.13092        -0.126609      0.036877      0.015467
O	      4.33766      2.08494      4.02209         0.049542     -0.007615      0.250254
O	      6.35808      4.11217      4.38003         0.055468      0.004621      0.084041
O	      6.42186      2.03924      6.67011        -0.017457     -0.001850     -0.050641
O	      8.50537      4.14813      6.44453         0.002027      0.022414     -0.000526
O	      4.18449      6.24121      4.13102        -0.061886     -0.179975      0.015962
O	      4.33380      4.29302      6.63948         0.020818     -0.022090     -0.055675
O	      6.23598      6.26767      6.45708        -0.037415     -0.008354      0.046097
O	      6.24662      4.03635      8.52538         0.031600      0.053001     -0.158302
O	      8.51167      6.10485      8.76844        -0.030938     -0.050948      0.098402
O	      2.34443      6.20344      6.23741         0.043551      0.021404     -0.099359
O	      4.19466      8.19009      6.76252         0.035274      0.031289      0.095039
O	      4.15551      6.39579      8.67350         0.177073     -0.093090      0.014251
O	      6.47596      8.30476      8.49414         0.185163     -0.151455     -0.065396
O	      6.51164      6.14920     10.80739         0.114982      0.083119     -0.032449
O	      8.58775      8.16574     10.58308        -0.145519     -0.070922      0.117090
