# total energy = -233.95220329 eV
 
CRYSTAL
PRIMVEC
0.048518 6.309706 6.344870 
6.336310 0.029808 6.364229 
4.236745 4.231681 0.007444 
PRIMCOORD
36 1
Li	      4.20644      4.19843      0.10006         0.007558      0.047954      0.005463
Li	      2.27556      8.42595      6.39650        -0.012247     -0.007669     -0.028974
Li	      4.09754      2.19706      2.03553         0.014787      0.054864      0.022065
Li	      2.13372      4.13205      2.11641        -0.037224     -0.031200      0.059591
Li	      2.11060      2.07751      4.16414        -0.020373      0.067058     -0.018620
Li	      4.28418      2.12653      6.35672         0.003030     -0.012020     -0.034492
Li	      6.31760      4.23376      6.36435         0.008367     -0.021221     -0.042642
Li	      4.26366      8.43752      4.30021         0.014212      0.012722      0.017689
Li	      4.28134      6.39759      6.33901         0.027872      0.001713      0.031234
Sc	      6.22661      8.39067      6.33635        -0.033949     -0.062966      0.044198
Ti	      2.32600      6.32507      4.30748         0.262497     -0.006990      0.132947
Mn	      2.09740      0.11007      2.11028         0.093959     -0.041978     -0.037334
Mn	      6.31250      2.16589      4.34395         0.010854     -0.020815     -0.116058
Mn	      6.37651      6.24717      8.44861        -0.050640     -0.059152      0.107137
V	      8.44937      4.31337      4.42236         0.070705     -0.056110     -0.209817
Fe	      4.33513      4.20102      8.33494        -0.107955      0.016037      0.251680
Co	      4.26372      4.21318      4.29363         0.026435      0.010425      0.038948
Cu	      6.42052      2.14480      8.34594        -0.072206      0.070907     -0.100958
O	      2.07092      2.00861      2.10337         0.123138      0.023758     -0.007651
O	      4.36682      4.34206      2.21267        -0.067512     -0.069843      0.004544
O	      4.28289      2.03265      4.22775        -0.059558      0.020777      0.006987
O	      6.48251      4.29761      4.27534        -0.077538      0.049389     -0.063241
O	      6.32781      2.10953      6.18018         0.001160      0.000657      0.303010
O	      8.53119      4.20391      6.14452        -0.049907      0.028463      0.200760
O	      2.15065      4.36592      4.23695         0.017729      0.093271      0.066950
O	      4.15695      6.34207      4.30563        -0.345012      0.009394      0.013150
O	      4.18824      4.22467      6.41384         0.010382      0.002321     -0.232964
O	      6.37193      6.34299      6.56983         0.015020     -0.012695      0.020783
O	      6.29759      4.15713      8.43637         0.163350     -0.005654     -0.023384
O	      8.43191      6.41087      8.58926        -0.237517     -0.116435      0.017287
O	      2.11093      6.30482      6.18593         0.051186     -0.001493     -0.129866
O	      4.28748      8.43448      6.40056         0.009056      0.005463     -0.019058
O	      4.25547      6.24518      8.61691         0.119701      0.012023     -0.026973
O	      6.45235      8.60279      8.54412        -0.000702      0.071053     -0.118583
O	      6.30954      6.31343     10.39633         0.084237     -0.042467     -0.099907
O	      8.44672      8.41030     10.51980         0.037106     -0.029541     -0.033899
