# total energy = -233.36131156 eV
 
CRYSTAL
PRIMVEC
0.016660 6.440110 6.348976 
6.309745 0.030358 6.334671 
4.208933 4.286534 0.018319 
PRIMCOORD
36 1
Li	      4.15826      2.11049      2.21613        -0.048073     -0.014254      0.030414
Li	      4.08605      0.17971      4.22913        -0.044799     -0.014314     -0.001380
Li	      6.34476      2.22627      8.44102         0.060651     -0.028655     -0.011738
Li	      6.46049      6.25721      4.32414        -0.009261     -0.051752     -0.004348
Li	      4.27085      4.24863      4.26262         0.049803     -0.011708      0.004421
Li	      8.35773      6.41156      6.26212         0.001094     -0.073016     -0.006354
Li	      6.29170      4.39389      6.34031        -0.006783     -0.022722     -0.018005
Li	      4.31332      4.41266      8.36229         0.027218      0.046478      0.025382
Li	      6.23382      6.35595      8.40876        -0.007285     -0.015556      0.006869
Sc	      6.18369      2.25339      4.09040        -0.024906      0.075475     -0.048153
Ti	      8.48083      6.48718     10.43478         0.027714      0.031834     -0.273169
Mn	      2.11818      4.26103      2.16341         0.031994     -0.067951     -0.020560
Mn	      6.38167      8.52643      6.43157         0.011437      0.079257      0.201405
Mn	      4.25118      6.41452      6.40298        -0.103213     -0.010583      0.131452
V	      8.33410      2.24449      6.38573        -0.109986      0.045909      0.088561
Fe	      4.19498      4.24443      0.05788         0.039824      0.021782      0.040934
Co	      6.29978      4.33557      2.19088         0.153204     -0.172685     -0.045711
Ni	      6.32428      4.32763     10.52871        -0.005003      0.043619      0.001163
O	      2.10529      2.21668      1.96629         0.003516      0.236532     -0.096178
O	      4.11542      4.29392      2.05416        -0.093329     -0.031239      0.142737
O	      4.24400      2.13836      4.28100        -0.027164      0.020240     -0.000056
O	      6.31969      4.26926      4.18691        -0.019920     -0.002756     -0.342160
O	      6.51179      2.14400      6.27238         0.057061      0.091899     -0.021419
O	      8.41891      4.14488      6.33877        -0.136546      0.048644      0.053845
O	      2.09838      4.44819      4.43919         0.089570      0.058083     -0.029553
O	      4.09337      6.48033      4.39250        -0.138914     -0.051258      0.055323
O	      4.17510      4.50888      6.37306         0.033153      0.107124      0.021680
O	      6.14676      6.51368      6.35846        -0.098928     -0.057241      0.000126
O	      6.50440      4.30703      8.53715         0.160036      0.002566     -0.160057
O	      8.47250      6.36921      8.59938         0.032493     -0.057795      0.275888
O	      2.21176      6.51488      6.34821         0.180595     -0.009024      0.309670
O	      4.09264      8.45101      6.29403         0.038142     -0.092131      0.068841
O	      4.17235      6.44847      8.28919        -0.255046      0.064194     -0.058057
O	      6.30443      8.61056      8.35335         0.022870     -0.084167     -0.171654
O	      6.48933      6.46279     10.67457         0.178284      0.066207     -0.142675
O	      8.43852      8.46612     10.64082        -0.069501     -0.171036     -0.007483
