# total energy = -231.59618560 eV
 
CRYSTAL
PRIMVEC
0.011949 6.294281 6.509448 
6.225867 0.018359 6.503798 
4.172775 4.214440 -0.009973 
PRIMCOORD
36 1
Li	      4.14684      6.34991     10.67491         0.003449      0.022244      0.067639
Li	      6.20450      8.40636     10.68095         0.017221     -0.037644      0.062336
Li	      2.10642      2.12118      4.33478         0.012147     -0.002167      0.012753
Li	      4.19930      2.16389      6.45657        -0.016914      0.045489     -0.024351
Li	      8.35352      6.33780     10.71554        -0.040426      0.003972     -0.029846
Li	      6.30192      8.37782      6.66779         0.078121     -0.043382      0.084470
Li	      4.15283      6.26655      6.61382        -0.062629      0.017605      0.075007
Li	      8.30044      8.49948      8.78906         0.063755      0.001377      0.054296
Li	      6.20340      6.38935      8.69647         0.031125     -0.011168      0.009054
Sc	      8.34747      8.40204     12.85146        -0.027453     -0.034011     -0.037001
Ti	      6.30673      6.27795     12.83041         0.118688     -0.146758     -0.562738
Mn	      6.32316     10.42186      8.74616         0.145882      0.019911      0.057162
Mn	     10.34252      6.35100      8.70773        -0.060850      0.082695     -0.095935
Mn	      8.28077      4.22941      8.70791        -0.119062      0.052551     -0.032612
V	      6.17986      4.52978      6.46828         0.014917     -0.178001      0.011461
Fe	      4.14117      4.10798      4.40622        -0.019549      0.122936      0.013343
Cu	      4.20731      8.33216      4.29438         0.024716      0.038925      0.039529
Ni	      4.24874      8.35478      8.77098        -0.062316     -0.082924      0.009945
O	      1.96752      2.13116      2.13186        -0.027768     -0.047035     -0.003750
O	      4.31426      4.14061      2.24815        -0.055783      0.122244     -0.098481
O	      4.13498      2.19279      4.30251         0.031836     -0.096140      0.114472
O	      6.19757      4.19215      4.51789         0.029161      0.014833     -0.098734
O	      6.23867      1.96105      6.63702         0.030213     -0.102904      0.015544
O	      8.30242      4.20733      6.66606         0.098686     -0.039368     -0.047966
O	      2.05671      4.18718      4.14389         0.045546      0.037738     -0.012774
O	      4.17689      6.30473      4.15237        -0.022930     -0.079032     -0.017765
O	      4.27123      4.25529      6.36319        -0.100193     -0.009292      0.025904
O	      6.24117      6.25482      6.49010         0.005477      0.309089     -0.009165
O	      6.16191      4.23547      8.39448         0.030757     -0.049838     -0.073670
O	      8.43405      6.14644      8.67146        -0.029339      0.035710      0.006239
O	      1.97305      6.31068      6.51338        -0.201573      0.007262     -0.021080
O	      4.15962      8.56880      6.68019        -0.021714      0.119095      0.026800
O	      4.02407      6.36201      8.67592         0.000304     -0.180399      0.008672
O	      6.29462      8.47576      8.69464         0.099067      0.095226      0.015458
O	      6.20918      6.25698     11.00982         0.089687      0.039619      0.486705
O	      8.45977      8.41170     10.88352        -0.102256     -0.048457     -0.030920
