# total energy = -232.40422509 eV
 
CRYSTAL
PRIMVEC
0.017223 6.280973 6.376721 
6.295232 0.022299 6.371431 
4.220621 4.207379 -0.008575 
PRIMCOORD
36 1
Li	      8.38388      2.16300      6.34016         0.010466      0.001901     -0.026969
Li	      6.27647      4.24615      2.22191        -0.023228      0.026864      0.013219
Li	      4.23684      2.07131      2.22206         0.003340     -0.019307      0.007252
Li	      4.14039      0.08357      4.20519         0.005506      0.020947      0.017911
Li	      4.28227      4.13470      4.22960         0.045283     -0.058929     -0.019601
Li	      4.17373      2.14251      6.27459         0.065817     -0.023805     -0.065339
Li	      6.33153      4.21189      6.26510         0.015119     -0.029991     -0.024399
Li	      6.29880      4.23100     10.62662        -0.059886      0.044543      0.011403
Li	      6.30910      6.31730      8.53150        -0.019125     -0.035497      0.042191
Sc	      4.17213      6.34978      6.32853        -0.092896      0.042700      0.207760
Ti	      4.22092      4.25481      8.52909         0.021400      0.136451      0.042708
Mn	      6.26311      2.16826      4.23697        -0.033282      0.097530      0.088059
Mn	      0.02400      2.10304      2.14795        -0.028026     -0.134190     -0.186888
Mn	      2.08813      4.23090      2.18922         0.025820      0.022201     -0.129945
V	     10.44948      4.24742      6.35535        -0.025390      0.112630      0.114908
Fe	      2.10838      4.15810      6.33301        -0.094060      0.070229      0.342850
Cu	      6.38197      6.22331      4.23435        -0.025312      0.078224      0.156890
Cu	      8.38434      6.30979     10.61643        -0.051262     -0.001317      0.071519
O	      1.97421      2.11084      2.29145         0.041412     -0.043884      0.023918
O	      4.24852      4.36858      1.98076        -0.070680      0.046550      0.096191
O	      4.38806      2.10754      4.20204         0.062689      0.030862      0.034157
O	      6.33031      4.08206      4.28521        -0.055466     -0.011699     -0.068863
O	      6.36273      2.00772      6.23680         0.018845      0.099567     -0.134793
O	      8.66104      4.15286      6.38056        -0.120391      0.031996     -0.146209
O	      2.09074      4.22744      4.35945         0.045490      0.075824     -0.187512
O	      4.04852      6.31236      4.27972        -0.147093     -0.106232     -0.005901
O	      4.09999      4.25355      6.50511         0.018669      0.035570      0.025855
O	      6.28326      6.36239      6.22194        -0.022128     -0.094535     -0.013548
O	      6.20870      4.10665      8.46687        -0.112480      0.070881      0.088864
O	      8.56361      6.39343      8.33946        -0.016864      0.142011     -0.027422
O	      2.00725      6.20766      6.49607         0.133206     -0.014173      0.013305
O	      4.28474      8.45395      6.43564         0.034408     -0.175599     -0.038827
O	      4.28116      6.14860      8.44794         0.015925     -0.239751     -0.045405
O	      6.44304      8.32870      8.53011         0.143655      0.003787      0.050214
O	      6.39690      6.41035     10.73442         0.129148     -0.217764     -0.205642
O	      8.30973      8.37853     10.48532         0.161374      0.015404     -0.121911
