# total energy = -231.34385684 eV
 
CRYSTAL
PRIMVEC
-0.008498 6.187630 6.354961 
6.383465 0.014352 6.332965 
4.279826 4.134022 -0.014166 
PRIMCOORD
36 1
Li	      4.27610      8.24323      8.39441         0.011825     -0.009543      0.022518
Li	      6.43622      8.22014     10.58749        -0.031714      0.010845      0.023125
Li	      6.36248      2.19582      8.41729         0.012839     -0.028500     -0.016533
Li	      6.30270      6.23703      4.27382         0.013594      0.037211      0.045394
Li	      8.48937      6.21821      6.46216        -0.024729     -0.000762     -0.020287
Li	      6.35738      4.20518      6.52092        -0.046920      0.034148     -0.051911
Li	      6.41355      4.10513     10.42547         0.003715      0.024528      0.003036
Li	      6.43183      8.17640      6.37594         0.054796     -0.028008     -0.010564
Li	      6.44782      6.12109      8.33796        -0.034497      0.041601     -0.039053
Sc	      4.25830      4.11924      4.31509         0.057904     -0.103165      0.012325
Ti	      6.40365     10.24515      8.49893        -0.013762     -0.365924      0.268194
Mn	      4.25972      4.10593      0.01316         0.032122      0.041588      0.037543
Mn	      8.52516      6.25420     10.47265         0.058396     -0.068301     -0.003320
Mn	      4.38880      6.26777      6.33153         0.172277     -0.036714     -0.010398
V	      4.29419      0.11206      4.21674        -0.131198      0.189414      0.020558
Fe	      8.45700      2.11581      6.37872         0.029884      0.059862     -0.147312
Ni	      8.34606      4.12828      8.44610         0.095670     -0.013169     -0.046739
Ni	      4.34850      4.09027      8.37542        -0.052832     -0.002689      0.028985
O	      2.16186      2.01525      2.01356         0.011312     -0.162002      0.090289
O	      4.43852      4.09660      2.07331         0.114967      0.006266     -0.015534
O	      4.22365      1.90959      4.23071         0.007637     -0.056262     -0.033302
O	      6.45153      4.12561      4.05717         0.024512     -0.009410     -0.245723
O	      6.49304      1.90251      6.32564        -0.052643     -0.037406      0.024069
O	      8.45707      4.10279      6.22066         0.030749      0.052264     -0.019457
O	      2.19378      4.29596      4.14557        -0.000797     -0.008629      0.125446
O	      4.28546      6.16176      4.30385         0.025279      0.010206     -0.093498
O	      4.28701      4.10916      6.31443        -0.005796      0.046997     -0.086667
O	      6.22214      6.25556      6.31573        -0.065307     -0.039804      0.030747
O	      6.36905      4.13633      8.45269        -0.033789      0.015402      0.051599
O	      8.48965      6.19455      8.55463        -0.005190     -0.039303      0.072156
O	      2.30232      6.25270      6.32167        -0.029604     -0.054144     -0.073446
O	      4.16667      8.34558      6.36603        -0.034885      0.005850     -0.010212
O	      4.18144      6.18834      8.55089        -0.041737      0.102230     -0.061264
O	      6.47876      8.40473      8.40449        -0.057411      0.425346     -0.007353
O	      6.21132      6.19269     10.71354        -0.087273     -0.019017      0.045332
O	      8.48103      8.29312     10.57817        -0.007396     -0.021007      0.091256
