# total energy = -238.36456606 eV
 
CRYSTAL
PRIMVEC
0.004011 6.251921 6.368098 
6.527950 0.008469 6.363809 
4.329286 4.142722 0.028798 
PRIMCOORD
36 1
Li	      8.63381      2.13632      6.40413         0.023975     -0.015075     -0.008828
Li	      4.35716      2.03444      2.25216        -0.097930     -0.018850     -0.026998
Li	      4.29824      0.06779      4.15598        -0.089706     -0.007412      0.005737
Li	      6.53851      2.11192      8.47370         0.000156      0.003980      0.035599
Li	      6.58656      6.18270      4.38989         0.044270     -0.086657     -0.077665
Li	      6.52884      4.16573      6.38757        -0.016707      0.012446      0.046656
Li	      6.46038      8.18920      6.49456        -0.000203      0.034298     -0.001875
Li	      4.55020      6.28649      6.44048         0.029053     -0.047522     -0.017005
Li	      6.49723      6.24794      8.42947         0.052862      0.015734     -0.026925
Sc	     10.83068      4.17000      6.42340        -0.008725      0.035957      0.059662
Ti	      4.34247      8.18702      4.30738        -0.152144     -0.220347      0.165922
Mn	      6.46840      2.08712      4.20669         0.048603     -0.003697      0.052190
Mn	      4.31049      4.19175      4.31761        -0.041728      0.145337      0.042054
Mn	      4.40717      4.17590      8.40222         0.004875     -0.080575      0.072361
V	      2.26602      6.33576      8.43017         0.011126      0.044238      0.094837
Fe	      2.11080      4.06038      2.13249         0.143160      0.035687     -0.000403
Fe	      8.47000      6.21280      6.38053         0.123194     -0.025831     -0.004840
Co	      8.68697      6.25063     10.62581         0.122059      0.219215     -0.081689
O	      2.20996      2.06064      2.12417        -0.022221     -0.021257      0.036239
O	      4.33462      4.19158      2.13911        -0.032872     -0.022527     -0.056500
O	      4.32807      2.08294      4.35596         0.008092     -0.080606     -0.063884
O	      6.48564      4.09101      4.04071         0.048299     -0.014090     -0.028929
O	      6.53404      2.09905      6.13792        -0.060172     -0.045484     -0.009720
O	      8.72717      4.18751      6.51246         0.079755     -0.035743     -0.056957
O	      2.04607      4.18433      4.16309        -0.038186      0.433428      0.074740
O	      4.27328      6.30773      4.32746        -0.413626      0.220236     -0.026416
O	      4.35206      4.10359      6.45710        -0.001714      0.058330      0.041335
O	      6.58213      6.20048      6.40917        -0.145754      0.036579     -0.010360
O	      6.65089      4.15735      8.62519        -0.052180      0.005202      0.092797
O	      8.75366      6.24690      8.44919        -0.010440      0.047156     -0.091966
O	      2.08107      6.25233      6.57624         0.009208     -0.043100      0.066559
O	      4.34479      8.35026      6.18639         0.019212      0.019899     -0.222963
O	      4.18445      6.19162      8.44382        -0.001026     -0.061573      0.017844
O	      6.49752      8.41152      8.63599        -0.031676      0.005050     -0.006584
O	      6.59204      6.28396     10.62912         0.394862     -0.057183     -0.109666
O	      8.86564      8.33532     10.46736         0.054248     -0.485246      0.025640
