# total energy = -235.62455973 eV
 
CRYSTAL
PRIMVEC
-0.049616 6.347264 6.306317 
6.429486 -0.004454 6.261834 
4.291247 4.206591 -0.007890 
PRIMCOORD
36 1
Li	      8.51183      2.10645      6.29839        -0.011790      0.001308     -0.001882
Li	      6.39773      2.10472      4.21307        -0.028297      0.040609     -0.028319
Li	     10.57298      6.40864      8.34836        -0.010243     -0.016237      0.044874
Li	      8.40710      4.35529      8.37478        -0.053963      0.000991      0.021900
Li	      4.21073      4.27405      4.21060        -0.009923     -0.013720     -0.036145
Li	      6.38089      4.13794      6.45117         0.001312     -0.041499      0.058689
Li	      2.17258      4.22476      6.26104         0.033545     -0.017290      0.001159
Li	      4.38177      4.10387      8.36700         0.023717     -0.020887      0.026359
Li	      6.55769      6.22784      8.33716         0.027332     -0.002438      0.035014
Sc	      2.11766      2.17682      4.19878        -0.002753     -0.028970     -0.034610
Ti	      8.52164     10.43966     10.51890        -0.025836     -0.218597      0.045279
Mn	      8.56338      6.40666      6.38143         0.001061      0.006449      0.031983
Mn	      6.42086      4.22785     10.41160         0.010949      0.000990      0.024181
Mn	      4.30649      6.18541      6.30434         0.033766     -0.029824      0.005064
V	      6.36773     10.47711      8.33468         0.048398      0.024734     -0.003658
Fe	      6.45777      0.10409      6.24464         0.003335     -0.055487     -0.015788
Fe	      4.23881      8.47107      8.32302         0.026000     -0.025400     -0.056204
Cu	      8.59116      6.29573     10.31694        -0.020921      0.018185      0.193423
O	      2.24481      1.91274      2.07465         0.017721      0.079418     -0.005339
O	      4.41456      4.13581      2.01894        -0.071198      0.005508     -0.021809
O	      4.24844      2.01143      4.04359        -0.056260     -0.037513      0.098890
O	      6.58363      4.22172      4.04750         0.165158      0.035533      0.057832
O	      6.28085      2.04637      6.29992        -0.062488      0.097123     -0.005703
O	      8.60034      4.30130      6.14822         0.022169      0.021529     -0.155196
O	      2.04551      4.23606      4.16964        -0.026144     -0.087837      0.001143
O	      4.35840      6.29106      4.23972         0.103876     -0.006336      0.004850
O	      4.29856      4.12980      6.28852         0.004931     -0.072091      0.011982
O	      6.54504      6.32259      6.27116         0.045188     -0.014016      0.000381
O	      6.40669      4.21772      8.55500         0.010256      0.005233      0.034055
O	      8.54159      6.32586      8.38502         0.005904      0.014745     -0.142051
O	      2.01631      6.38185      6.36342        -0.005954      0.022324     -0.111664
O	      4.24278      8.51535      6.26461        -0.013467      0.030456     -0.047712
O	      4.13927      6.39501      8.42196         0.077586      0.024369      0.037710
O	      6.29959      8.65718      8.37764        -0.029559     -0.109067     -0.052220
O	      6.20408      6.38883     10.53038        -0.241870      0.039465     -0.035826
O	      8.57368      8.55391     10.47830         0.008460      0.328239      0.019357
