# total energy = -236.22198904 eV
 
CRYSTAL
PRIMVEC
0.009101 6.384484 6.356433 
6.269595 0.012289 6.353295 
4.179958 4.254471 0.008116 
PRIMCOORD
36 1
Li	      8.30350      2.17669      6.32888        -0.012669      0.010047     -0.026744
Li	      6.22872      4.23190      2.17566         0.015391     -0.011539     -0.012126
Li	      6.31370      2.17001      4.31918         0.006989     -0.010919      0.005502
Li	      6.29599      2.18227      8.39047         0.029463     -0.061317     -0.013827
Li	      4.33802      2.12908      6.33649         0.005340      0.031979      0.006897
Li	      6.24783      4.10592      6.36314         0.011640     -0.049493      0.029967
Li	     10.38534      8.55512     10.62566         0.010015      0.019756     -0.026005
Li	      2.12909      6.30774      4.22247        -0.014988     -0.062255     -0.002440
Li	      2.08291      4.27291      6.27545         0.002057      0.015599      0.020139
Sc	      6.28981      6.37036      8.42776         0.075962     -0.021636      0.088960
Ti	      4.01430      6.46032      6.26808        -0.219839      0.184642     -0.088985
Mn	      4.25268      8.55489      8.45307        -0.020331      0.046036      0.015841
Mn	      8.29849      4.23686      4.33045         0.031298      0.013081      0.001718
Mn	      8.34272      8.49665      8.45489         0.059073     -0.070552      0.030083
V	      2.11373      4.22707      2.11617        -0.024188      0.023605      0.050409
Fe	      6.34127      0.20208      6.29503         0.043536     -0.200198      0.030649
Fe	      6.27416      6.40737      4.36109         0.005122      0.013143     -0.169182
Ni	      4.23846      4.22062      4.31841         0.036670     -0.065148     -0.047176
O	      2.12535      2.33371      2.22324        -0.016285     -0.075300      0.038228
O	      4.14638      4.25529      2.10852         0.026173     -0.029153     -0.068439
O	      4.10935      2.04280      4.29994         0.046883     -0.068978     -0.042034
O	      6.32662      4.36858      4.24989         0.065952     -0.048187      0.021874
O	      6.31765      2.06047      6.35584        -0.012792      0.206980      0.002536
O	      8.48960      4.23643      6.51321        -0.041969      0.006271     -0.158916
O	      2.18776      4.16620      4.13873        -0.126114      0.039434      0.143582
O	      4.23323      6.30446      4.36052        -0.037745      0.120504      0.162737
O	      4.17094      4.38627      6.42359        -0.030448      0.031906      0.043140
O	      6.13600      6.42805      6.34625        -0.058616     -0.000578      0.074802
O	      6.35165      4.28106      8.46798        -0.130136      0.041298     -0.007034
O	      8.34840      6.19353      8.52700        -0.032870      0.078786      0.008121
O	      2.10070      6.37503      6.29497         0.259920      0.002068     -0.005370
O	      4.13515      8.37564      6.31853         0.002000     -0.152456      0.010345
O	      4.18063      6.43162      8.33614        -0.007947      0.015544     -0.038394
O	      6.29791      8.46654      8.47881         0.069378      0.037284     -0.024602
O	      6.11747      6.38269     10.63117        -0.015549     -0.002344     -0.081251
O	      8.33165      8.69674     10.42903        -0.000377     -0.007912      0.026997
