# total energy = -226.67886077 eV
 
CRYSTAL
PRIMVEC
-0.005162 6.224850 6.323595 
6.293294 0.007985 6.310077 
4.220827 4.166544 -0.020001 
PRIMCOORD
36 1
Li	      2.32727      6.13188      8.43727         0.012052     -0.017604     -0.009657
Li	      4.25779      8.10202      8.49613         0.029941     -0.000167     -0.018183
Li	      4.18967      6.24029     10.23076         0.030889     -0.040331      0.034000
Li	     10.40246      6.28715      8.47193        -0.008228      0.011385     -0.005761
Li	      8.31125      6.27913      6.39515        -0.010610      0.006378      0.025289
Li	      8.40216      6.23316     10.37750         0.001716      0.033823     -0.020355
Li	      4.37527      6.19022      6.53105         0.014649      0.020605     -0.098607
Li	      4.09898      4.31732      8.36988         0.007071     -0.019185     -0.041530
Li	      6.18257      6.26078      8.31095         0.006530      0.015315     -0.008572
Sc	      2.14720      8.18742      6.44573         0.057079     -0.036921      0.055374
Ti	      4.28574      4.12231      4.23839         0.195512     -0.147389      0.036414
Mn	      4.20280      4.16691      0.02914        -0.048417     -0.034712      0.032803
Mn	      6.36847      8.22352     10.37381        -0.009859     -0.004398     -0.048330
Mn	      8.40438      4.26765      8.43391         0.041352     -0.042053     -0.006792
V	      6.20295      4.15173     10.40764        -0.025821     -0.038446      0.075288
Ni	      2.13039      2.10257      4.20041         0.047906     -0.048148     -0.051196
Ni	      6.25101      4.25807      6.35415         0.077662     -0.036904      0.062571
Ni	      6.30778      8.26981      6.46028         0.034518      0.003634     -0.012451
O	      4.19090      6.22856      8.38429         0.011752      0.009345     -0.036760
O	      2.10761      2.23682      2.13129         0.004832      0.097525     -0.066836
O	      4.03988      4.25856      2.25726        -0.074741     -0.001875      0.081442
O	      4.30682      2.22197      4.18218         0.048825      0.175255      0.011842
O	      6.18952      4.22526      4.24939        -0.183108     -0.132922     -0.087430
O	      6.36143      2.00937      6.08724        -0.017488     -0.056235      0.022666
O	      8.48116      4.14361      6.48440         0.003808      0.007043      0.067678
O	      2.09926      4.17857      4.10404         0.011456      0.120997     -0.053215
O	      4.24075      6.41689      4.19622        -0.106359      0.029667      0.005562
O	      4.14196      4.20925      6.13729         0.056608     -0.016390     -0.190652
O	      6.34719      6.26123      6.18815         0.000256      0.000557      0.106647
O	      6.43266      4.15105      8.43783         0.020714     -0.001220      0.047176
O	      8.41157      6.09680      8.39744        -0.049469     -0.046090     -0.015417
O	      1.88720      6.15873      6.42805        -0.050606      0.115832     -0.018717
O	      4.21575      8.39860      6.19164        -0.096572      0.041198     -0.008202
O	      6.32514      8.29111      8.51344         0.013868      0.001759      0.147067
O	      6.26350      6.01311     10.52070         0.009812      0.034644     -0.031074
O	      8.44337      8.27182     10.55842        -0.057532     -0.003972      0.017917
