# total energy = -236.18048768 eV
 
CRYSTAL
PRIMVEC
0.013847 6.573590 6.368068 
6.046037 0.026100 6.354751 
4.057456 4.400127 -0.008679 
PRIMCOORD
36 1
Li	      4.12243     10.86491      6.34824         0.010012     -0.001235      0.001530
Li	      4.00942      6.60353      2.20250        -0.015339      0.044245      0.047286
Li	      4.05384      4.46081      4.34336        -0.025570      0.120931     -0.034310
Li	      4.08728      2.36383      6.29377         0.007687     -0.017977      0.062228
Li	     10.04445      8.82676     10.62559         0.063265     -0.039539     -0.012634
Li	      2.05956      6.61826      4.32590        -0.011508      0.052231      0.010407
Li	      2.12205      4.45724      6.35456        -0.047138      0.010613     -0.004035
Li	      3.98677      6.51792      6.34630         0.002041     -0.007708     -0.041647
Li	      4.06109      4.36087      8.43115        -0.018349     -0.017288      0.013847
Sc	      2.13785      4.43234      2.17146         0.084305      0.061400      0.042422
Ti	      5.92435      6.71213      4.34232        -0.571412      0.310984      0.007484
Mn	      2.04181      8.73821      6.33106         0.168971     -0.100984     -0.044264
Mn	      2.03057      6.56939      8.42952         0.027711      0.066070     -0.110230
Mn	      4.08350      6.57657     10.59828         0.101461     -0.054978     -0.089394
Mn	      5.98679      4.33804      6.36913        -0.124833     -0.002351     -0.031884
V	      6.05890      6.56700      8.44517        -0.096494      0.042705     -0.010329
Co	      6.08088      8.75742     10.55593         0.029891      0.007755     -0.061990
Cu	      4.06285      8.78685      8.45457        -0.026244      0.017408     -0.080677
O	      2.04026      2.31029      2.30066        -0.078553     -0.031814      0.105425
O	      4.16569      4.56765      2.14770        -0.092802      0.104353     -0.057284
O	      4.07047      1.98739      4.14015        -0.107221     -0.026769      0.201269
O	      6.16099      4.56408      4.05580        -0.042936     -0.079106      0.124472
O	      6.10928      2.33621      6.20158        -0.049919     -0.039579      0.098668
O	      7.99486      4.25800      6.42014        -0.037511      0.050687     -0.038542
O	      2.05554      4.19294      4.27725         0.027704     -0.324127     -0.004485
O	      4.10229      6.62111      4.27111         0.668566      0.013565      0.015150
O	      4.14137      4.33571      6.30737         0.132240     -0.018323      0.008095
O	      6.09817      6.44490      6.29808        -0.017164     -0.038830     -0.019111
O	      6.09255      4.56831      8.47077         0.020146     -0.006951     -0.060077
O	      7.91574      6.56128      8.48763        -0.033857      0.010568     -0.034490
O	      2.00770      6.73011      6.50822        -0.003560      0.009575     -0.030502
O	      3.93004      8.82606      6.48411        -0.055679     -0.021466     -0.127964
O	      4.10370      6.45189      8.38302         0.036759     -0.076864      0.083206
O	      6.03415      8.61854      8.49813         0.125880     -0.014279      0.052208
O	      6.01979      6.54407     10.44831        -0.054891     -0.028540      0.050463
O	      8.03589      8.99461     10.58469         0.004342      0.025617     -0.030311
