# total energy = -239.63086269 eV
 
CRYSTAL
PRIMVEC
0.036261 6.294749 6.233379 
6.597769 0.024392 6.245171 
4.400706 4.208054 0.013260 
PRIMCOORD
36 1
Li	      0.12307      6.27379      6.27433         0.004549      0.007170      0.036855
Li	      6.48788      4.16998      2.17345        -0.006776      0.002593      0.006855
Li	      2.29023      4.28816      2.12905        -0.007000     -0.008099      0.011851
Li	      2.19888      2.22499      4.14776        -0.068770      0.045364     -0.034937
Li	      4.37148      4.12591      4.16450         0.063301     -0.031958      0.010759
Li	      8.68602      6.34111      6.34516         0.009977     -0.034766     -0.021684
Li	      2.37676      4.09445      6.23515         0.013246      0.007696     -0.020778
Li	      8.75387      8.24053      8.29184         0.023183      0.022106     -0.029535
Li	      6.83426      6.41965      8.28602         0.052038     -0.039438     -0.013074
Sc	      4.43411      6.27144      6.29352         0.014771      0.015974      0.026600
Ti	      2.15648      2.08783      0.15239        -0.006754      0.005022      0.334122
Mn	      4.43766      2.21878      2.13382        -0.049307      0.006294      0.007561
Mn	      4.42296      6.34753     10.34322         0.002980     -0.000851      0.027213
Mn	      6.66458      8.36247     10.34340        -0.003405     -0.039187      0.060828
Mn	      6.70996      4.29673     10.33194        -0.024409      0.019807     -0.022911
V	      6.53501      4.26874      6.28130         0.047775     -0.095804     -0.009529
Co	      4.31928      6.17226      2.08896        -0.067130      0.029284      0.174243
Co	      2.27336      6.24317      4.07056         0.008729     -0.014958      0.007386
O	      2.07411      2.11126      1.98506        -0.057653      0.000598     -0.345177
O	      4.38573      4.12887      2.14011         0.036994     -0.040031     -0.012632
O	      4.39051      2.01353      4.10696        -0.020985      0.018316      0.043892
O	      6.59073      4.05385      4.32566        -0.038390     -0.034552     -0.090172
O	      6.75514      2.12287      6.09880         0.045817     -0.056556     -0.013795
O	      8.63726      4.13434      6.09879         0.010832     -0.003372     -0.020344
O	      2.00379      4.21898      4.22264         0.016914     -0.003718      0.017262
O	      4.39690      6.49614      4.20192         0.061338      0.060862     -0.054555
O	      4.53327      4.24631      6.22383        -0.066109     -0.044032     -0.007723
O	      6.53330      6.19066      6.25031         0.009526      0.136794     -0.035088
O	      6.64464      4.11239      8.08834        -0.022017      0.027905      0.109991
O	      8.91824      6.29268      8.33365        -0.002540     -0.021137     -0.087859
O	      2.28342      6.48274      6.17546        -0.003144      0.057741      0.048305
O	      4.22489      8.44589      6.37805        -0.015107      0.026227     -0.018867
O	      4.39341      6.50808      8.38706        -0.021668     -0.028054     -0.007748
O	      6.67784      8.44016      8.45278         0.008102     -0.024136     -0.076535
O	      6.67355      6.32641     10.38410        -0.012860     -0.006464      0.003294
O	      9.03678      8.56401     10.41575         0.063955      0.037360     -0.004076
