# total energy = -233.71360889 eV
 
CRYSTAL
PRIMVEC
0.055714 6.315468 6.333768 
6.437478 0.031923 6.356841 
4.265649 4.200246 0.047358 
PRIMCOORD
36 1
Li	      8.56342      2.17450      6.36941        -0.027830      0.038503      0.076225
Li	      6.47973      4.16097      2.29017         0.012067      0.002357      0.036093
Li	      8.43301      4.16082      4.28282         0.027309     -0.031337      0.032660
Li	      6.43148      2.28493      4.23645        -0.050032      0.042293      0.042220
Li	      4.45704      4.21768      4.35503         0.049391     -0.011007     -0.034247
Li	      6.31365      4.32103      6.29464         0.023190     -0.060414      0.032782
Li	      2.26796      4.22307      6.37253        -0.003153     -0.075381     -0.000219
Li	      4.39494      6.08090      6.40736         0.077960      0.105073     -0.001393
Li	      4.26649      4.34537      8.36487        -0.014221      0.002969      0.015452
Sc	      4.28191      2.25157      6.31098        -0.037190     -0.330408     -0.067737
Ti	      4.46271      8.30977      8.50805        -0.035986      0.061375      0.192743
Mn	      4.25504      4.18610      0.06824        -0.433548      0.128573      0.077437
Mn	      0.08114      2.13675      2.08780         0.075959     -0.022819     -0.146929
Mn	      6.44749      6.17293      4.28459         0.057306      0.245716     -0.212627
Mn	     10.70218      8.45873     10.63671         0.238261     -0.076509      0.047936
V	      8.60226      6.42072     10.66043        -0.081429     -0.188880     -0.249134
Cu	      8.58182      4.21104      8.45914        -0.032370     -0.073457     -0.183853
Cu	      6.42351      6.34082      8.44419         0.008254     -0.068392     -0.021007
O	      2.24439      1.98748      2.26816         0.061373     -0.122110      0.004206
O	      4.25314      4.11984      2.01765         0.119256      0.051909      0.017948
O	      4.31579      2.18319      4.14055         0.101371     -0.021050     -0.066933
O	      6.45584      4.28745      4.29449         0.010570     -0.213473      0.021627
O	      6.42733      1.95435      6.38685        -0.004456      0.099073     -0.018584
O	      8.74702      4.25530      6.46792         0.216069     -0.143649      0.025353
O	      1.96457      4.23631      4.13120        -0.172744     -0.009975      0.161801
O	      4.14710      6.33205      4.22572        -0.296739      0.047871      0.160276
O	      4.30527      4.17280      6.36973        -0.049599      0.325222     -0.013405
O	      6.47867      6.30784      6.18312        -0.051792      0.069317      0.030089
O	      6.51618      4.30969      8.49892        -0.029609     -0.012647     -0.193522
O	      8.47090      6.42605      8.62974         0.104339      0.168128      0.411734
O	      2.01717      6.27280      6.15717         0.185100     -0.012992     -0.279126
O	      4.27986      8.57922      6.46643         0.063510     -0.185067      0.097354
O	      4.40086      6.44529      8.43139        -0.213282     -0.200051     -0.049266
O	      6.32994      8.38213      8.49634         0.039080      0.260434     -0.017914
O	      6.53451      6.31208     10.77358         0.186907      0.097566      0.039911
O	      8.78367      8.33704     10.62400        -0.123291      0.113239      0.032049
