# total energy = -238.61469152 eV
 
CRYSTAL
PRIMVEC
0.023273 6.327909 6.434308 
6.212593 0.028134 6.428922 
4.175281 4.247409 -0.013682 
PRIMCOORD
36 1
Li	      6.22098      0.05427      6.42941         0.039639      0.042599     -0.002646
Li	      4.17461      8.44634      8.55173        -0.000829      0.000355     -0.012762
Li	      6.22833      2.15228      4.33289         0.040046     -0.025589      0.054956
Li	      4.17201      6.40183      2.19397         0.006797      0.022076     -0.016509
Li	      4.14131      4.33728      4.28878        -0.046959     -0.001314     -0.026928
Li	      4.18289      8.35891      4.28597         0.000526     -0.002291      0.003757
Li	      2.21076      6.34371      4.22922         0.055909      0.019776     -0.029978
Li	      4.15431      6.36201      6.28482        -0.077109      0.005209     -0.119755
Li	      6.24247      6.33442      8.55035        -0.015268      0.004290      0.030059
Sc	      6.15280      8.40293      6.36595        -0.056572     -0.028169     -0.022731
Ti	      6.11843      4.24426      2.11064        -0.454438     -0.022997     -0.186417
Mn	      2.17520      8.42621      6.39681        -0.015460      0.007895      0.004942
Mn	      8.33401      4.35373      8.61476         0.033448     -0.004493      0.024398
Mn	      6.17753      6.36335      4.26112        -0.074571      0.106143     -0.039770
Mn	      8.35757      8.43940      8.61715         0.025432     -0.047788      0.062303
V	      4.33791      6.35796     10.72554         0.411617     -0.009765      0.003639
Fe	      6.16019      4.26010      6.44821         0.004147      0.017294     -0.006439
Cu	      4.19479      2.13846      6.42504         0.057172      0.065331      0.022619
O	      2.13123      1.99893      2.04031        -0.005091     -0.113654      0.001925
O	      4.27292      4.20683      2.16749         0.499824      0.006074     -0.006053
O	      4.01135      1.99593      4.36485        -0.034491      0.037575     -0.128630
O	      6.31525      4.32794      4.21545        -0.018283     -0.010445      0.019453
O	      6.42395      2.27627      6.37213        -0.026297     -0.038329     -0.000829
O	      8.26705      4.35664      6.34584        -0.027645     -0.076263     -0.013765
O	      2.07773      4.15581      4.30001        -0.005485     -0.116266      0.039802
O	      4.30026      6.35717      4.23057         0.042306     -0.040833     -0.000348
O	      4.18479      4.15020      6.38161        -0.064801      0.063793     -0.014551
O	      6.12055      6.30144      6.43528        -0.090755     -0.021160      0.029163
O	      6.16538      4.27502      8.45821        -0.050079     -0.008044      0.052832
O	      8.33217      6.47692      8.50551        -0.007727      0.059785      0.108868
O	      2.10279      6.26214      6.60871         0.042720      0.021265      0.164327
O	      4.12895      8.45984      6.44385         0.154685     -0.030779      0.013071
O	      4.09270      6.19990      8.78287        -0.073743      0.003377     -0.044164
O	      6.33925      8.57977      8.53787         0.011640      0.058577      0.037998
O	      6.09357      6.42939     10.71928        -0.257941      0.036683      0.014855
O	      8.35496      8.61750     10.82022        -0.022363      0.020082     -0.016689
