# total energy = -238.58392035 eV
 
CRYSTAL
PRIMVEC
0.013673 6.196559 6.528262 
6.335143 0.007572 6.534508 
4.228249 4.140203 -0.000035 
PRIMCOORD
36 1
Li	      8.41832      2.07010      6.54607         0.014043     -0.021964      0.015638
Li	      6.43217     10.29643      8.79755         0.019955     -0.004988      0.064084
Li	      6.28252      2.16060      4.44911         0.016964     -0.019369      0.076953
Li	      4.32945      4.11296      4.44223         0.005838     -0.008196      0.016207
Li	      4.27552      2.12941      6.43135         0.010759     -0.031488     -0.018062
Li	      6.27329      4.12417      6.40233        -0.027631     -0.004377      0.027517
Li	      4.23414      8.28645      4.41171        -0.045379      0.008457      0.034148
Li	      4.25039      6.18471      6.53741        -0.032388      0.027021     -0.002857
Li	      6.27262      6.26343      8.70454         0.028319      0.010397     -0.009272
Sc	      8.44922      6.28106     10.90873        -0.036328      0.035444      0.062044
Ti	      8.32313      4.14371      8.64607        -0.178606      0.038103     -0.195201
Mn	      4.25314     10.32926      6.54065         0.042465     -0.002201     -0.011589
Mn	      4.27885      8.22335      8.74675         0.039615      0.029902      0.010347
Mn	      8.43064      4.13818      4.40287         0.053282     -0.026952     -0.010045
Mn	      4.26178      4.23516      8.63888         0.013945     -0.007136      0.001765
V	      6.42001      8.17950      6.53681        -0.004431      0.143548     -0.025801
Fe	      4.27358      6.11686      2.20092        -0.058197      0.005941     -0.039895
Ni	      6.31221      6.18289      4.36107        -0.006328      0.007040      0.011419
O	      2.05926      2.14437      2.24373         0.045401      0.114999     -0.112490
O	      4.13281      4.07074      2.20885        -0.018251     -0.023906      0.071373
O	      4.19387      1.95364      4.30463         0.099718      0.017164     -0.033557
O	      6.49315      4.14479      4.41169         0.001394     -0.097345     -0.034170
O	      6.36277      1.90431      6.73781        -0.009061      0.003519     -0.094603
O	      8.50074      4.12889      6.75144         0.012124     -0.015728      0.232077
O	      2.09059      4.16136      4.28271        -0.042739      0.061751     -0.069849
O	      4.20556      6.21054      4.18547        -0.091234      0.004964      0.088472
O	      4.12018      4.14164      6.52398         0.055752      0.014788     -0.073588
O	      6.29070      6.39515      6.40923         0.006047     -0.150170      0.100278
O	      6.44058      4.08912      8.63661         0.247271     -0.016116      0.011734
O	      8.50830      6.11463      8.77365        -0.048597     -0.135917      0.015394
O	      2.09547      6.07033      6.43074        -0.071197      0.036754     -0.055412
O	      4.33336      8.39179      6.59509        -0.051527     -0.021036      0.012522
O	      4.26442      6.29681      8.65789        -0.006860      0.075622      0.012123
O	      6.37363      8.27424      8.46212         0.010176     -0.019338      0.004092
O	      6.25855      6.24191     10.96547         0.006983      0.000924     -0.100864
O	      8.46286      8.35605     10.84299        -0.001297     -0.030112      0.019068
