# total energy = -233.24125832 eV
 
CRYSTAL
PRIMVEC
-0.004807 6.503264 6.244360 
6.254738 0.011967 6.226597 
4.162750 4.317034 0.015160 
PRIMCOORD
36 1
Li	      6.24966      0.23454      6.33752        -0.012457      0.033870     -0.011785
Li	      2.02357      0.06176      2.04004        -0.041118      0.026162     -0.032682
Li	      6.17692      2.27904      4.39102        -0.039509      0.016181     -0.006913
Li	      6.25048      2.17053      8.18692         0.033842      0.027631      0.032208
Li	      4.30289      2.18942      6.22860        -0.034125      0.015367      0.022984
Li	      6.26301      4.16852      6.25346        -0.027390     -0.005653      0.053133
Li	      6.20222      8.53359      6.18799         0.030128     -0.002907     -0.010286
Li	      4.26153      6.52132      6.23454        -0.008848     -0.043713      0.047037
Li	      6.27407      6.39203      8.11928        -0.022638     -0.043022     -0.092509
Sc	      8.30256      4.33755      4.26413        -0.062385      0.085150      0.038252
Ti	      2.00314      6.55295      4.32104        -0.133882     -0.035418      0.411006
Mn	      4.21669      8.67873      8.19756         0.024507     -0.028489      0.061757
Mn	      8.32045      4.33911      8.25836         0.161835     -0.017754     -0.047110
Mn	      6.21747      6.40544      4.22477         0.057602     -0.025053     -0.085045
Mn	      4.16876      8.62233      4.23298         0.061855     -0.032990      0.007892
V	      8.13023      8.66141      8.13446         0.013808      0.132406     -0.382123
Ni	      1.97609      2.14262      0.09755         0.046426      0.016671      0.098800
Ni	      4.22507      4.31059      4.14070         0.046817     -0.041841      0.164437
O	      2.11251      2.11849      2.20281        -0.105956      0.029124      0.058146
O	      4.00199      4.29551      2.11424         0.032904      0.068065     -0.053570
O	      4.13154      2.12325      4.09562         0.041054     -0.129484      0.064599
O	      6.24845      4.29839      4.15316         0.156761      0.001126     -0.021833
O	      6.28122      2.18218      6.26987        -0.205156     -0.015809     -0.021158
O	      8.31673      4.28652      6.32236         0.049854      0.032907      0.040412
O	      2.15952      4.53051      4.05928        -0.139592      0.155425     -0.036645
O	      4.11996      6.49987      4.19007         0.002197      0.090602     -0.016392
O	      4.20092      4.35369      6.36995        -0.070558     -0.062083      0.354525
O	      6.27212      6.55971      6.05746        -0.024029     -0.041082      0.144011
O	      6.36323      4.38361      8.45414        -0.019005     -0.011871     -0.053014
O	      8.34400      6.83364      8.42849        -0.027644     -0.063458     -0.037940
O	      2.07020      6.54262      6.14513         0.023648     -0.031307     -0.484960
O	      4.08736      8.60118      6.18148         0.085272      0.006703     -0.124302
O	      4.23189      6.21172      8.38163        -0.047221     -0.054711     -0.029396
O	      6.37111      8.67477      8.22072         0.012112     -0.025417      0.058460
O	      6.33750      6.42993     10.42812         0.157061      0.013709     -0.020031
O	      8.30418      8.60569     10.34351        -0.016170     -0.039039     -0.089968
