# total energy = -239.76070637 eV
 
CRYSTAL
PRIMVEC
0.067851 6.430439 6.632155 
6.176188 0.041042 6.659902 
4.125152 4.312824 0.020432 
PRIMCOORD
36 1
Li	      4.23646     10.52850      6.75736        -0.052995      0.033381      0.047204
Li	      2.10786      6.50476      8.62215         0.032882      0.040195      0.003397
Li	      4.23447      8.59477      8.64897        -0.030269     -0.051284      0.012936
Li	      6.15867      2.16629      4.44779        -0.038525      0.007999      0.037420
Li	      2.04476      2.22478      4.39763         0.034705     -0.021271     -0.012591
Li	      4.17580      8.63116      4.71353        -0.001439     -0.026161     -0.009553
Li	      6.08311      8.62220      6.68490         0.040081     -0.061818      0.000101
Li	      4.13113      6.60067      6.65190         0.018068     -0.030615     -0.041125
Li	      6.15648      6.51717      8.89758        -0.028936      0.024078     -0.006822
Sc	      2.01874      6.45254      4.59538        -0.014870      0.006300      0.042715
Ti	      6.18388      4.43213      6.62283         0.049478      0.226585     -0.108861
Mn	      4.22771      6.44982     11.03942        -0.076651      0.088168     -0.013345
Mn	      4.20099      6.39130      2.24266         0.221093     -0.042535     -0.012095
Mn	      2.08453      4.21681      2.27152         0.017740     -0.037506      0.010147
Mn	      4.15034      4.30206      4.41407         0.047441     -0.083417     -0.018531
Mn	      4.19360      2.20289      6.63263         0.072305     -0.042585     -0.087827
V	      8.15099      8.71138      8.89324        -0.027092      0.277107      0.017219
Cu	      2.21300      8.50907      6.69702        -0.184142      0.086022     -0.029536
O	      1.95391      2.13000      2.29966        -0.080318      0.006423      0.101540
O	      4.16030      4.37460      2.25752         0.040278      0.092905     -0.040540
O	      4.14726      2.33144      4.64839         0.031055      0.123028     -0.071420
O	      6.23972      4.32762      4.66239        -0.010626      0.014212      0.214932
O	      6.16010      2.34445      6.65296         0.060931     -0.031629     -0.044646
O	      8.21075      4.25622      6.54412        -0.111394     -0.053405     -0.089749
O	      2.14905      4.34935      4.43086        -0.002780      0.069320      0.091325
O	      4.11712      6.25317      4.40367        -0.032507      0.020590      0.035089
O	      4.26491      4.42035      6.75409         0.108603     -0.010119      0.068432
O	      6.38264      6.33029      6.72907        -0.120337     -0.223489      0.070114
O	      6.13225      4.23004      8.65754        -0.054414     -0.065372     -0.056950
O	      8.38561      6.55073      8.73195        -0.021792      0.094255      0.110334
O	      2.09025      6.54058      6.57808        -0.025558     -0.018153     -0.017666
O	      4.12563      8.55289      6.67951         0.089626     -0.045249     -0.018057
O	      4.16610      6.33208      9.05218         0.012165     -0.269177      0.052201
O	      6.40302      8.58643      8.77256         0.009932     -0.024466     -0.028269
O	      6.14386      6.48604     11.03070         0.042215     -0.044709     -0.039804
O	      8.33017      8.55710     10.80383        -0.013952     -0.027608     -0.167717
