# total energy = -244.22832886 eV
 
CRYSTAL
PRIMVEC
0.068343 6.410478 6.385131 
6.410561 0.071190 6.381790 
4.312617 4.310122 0.009647 
PRIMCOORD
36 1
Li	      4.27616      4.32011      0.08885         0.000304     -0.023791     -0.034529
Li	      6.27963      4.20575      2.13719         0.030578     -0.018297     -0.035249
Li	      4.54751      8.75504      8.48802        -0.009356      0.056038     -0.035147
Li	      6.42822      8.59717     10.57207        -0.005246     -0.027102      0.014014
Li	      2.28059      4.31248      2.10855         0.045590     -0.017890     -0.049592
Li	      4.33663      4.29031      4.20641         0.014435      0.004817      0.037823
Li	      8.62388      6.45525      6.40341         0.029740     -0.038265      0.018088
Li	      6.46103      8.56920      6.48321        -0.039433     -0.007347      0.001178
Li	      6.45418      6.58012      8.50178        -0.045912      0.038069     -0.023959
Sc	      8.45120      8.57964      8.48434        -0.113133      0.061836     -0.020934
Ti	      2.24056      2.25123      4.18593         0.184184      0.064008     -0.211819
Mn	      2.19585      2.14509      0.05691         0.019161     -0.018594      0.037324
Mn	      6.46628      4.35482      6.41837         0.000393     -0.007582     -0.067568
Mn	      6.47150      4.37907     10.52505         0.001032      0.047583      0.023556
Mn	      2.12760      6.34385      4.25904        -0.002633      0.027392      0.002737
Mn	      4.32778      6.48947      6.40122        -0.040299     -0.006126      0.051417
V	      4.40509      6.50305     10.59128        -0.042010      0.011780     -0.091036
Fe	      4.31249      6.23635      2.10711         0.055763      0.160252     -0.011715
O	      2.10154      2.13909      2.30373        -0.018067      0.027936      0.210239
O	      4.31262      4.36040      2.11822        -0.018759     -0.097818     -0.004200
O	      4.18498      2.07072      4.35476        -0.172273      0.030556      0.033417
O	      6.58393      4.47336      4.43799        -0.016788      0.007224      0.043492
O	      6.62338      2.25077      6.47792         0.012954      0.004203     -0.037182
O	      8.60548      4.21198      6.22974         0.016620      0.009802      0.028738
O	      2.20082      4.15380      4.29765         0.041799     -0.179137     -0.013267
O	      4.43672      6.44113      4.15189         0.045313     -0.020211      0.070300
O	      4.34421      4.52332      6.40764        -0.056417     -0.018845      0.010324
O	      6.29789      6.46398      6.29347         0.005734     -0.001979     -0.042082
O	      6.42669      4.30451      8.36387         0.002225     -0.048505      0.006968
O	      8.69130      6.51277      8.48548        -0.014140     -0.004367     -0.031550
O	      2.35838      6.58021      6.37676         0.027255      0.035616      0.012298
O	      4.22975      8.45156      6.38577        -0.024700     -0.027825      0.044931
O	      4.32184      6.43084      8.76847        -0.009052     -0.023181      0.038916
O	      6.49684      8.61012      8.49985         0.100902     -0.029639     -0.003075
O	      6.36923      6.49521     10.66819        -0.014284      0.037123      0.014262
O	      8.62342      8.73325     10.58898         0.008518     -0.007733      0.012880
