# total energy = -239.61154424 eV
 
CRYSTAL
PRIMVEC
0.043086 6.263650 6.349038 
6.432838 0.013847 6.377558 
4.301359 4.208609 -0.003698 
PRIMCOORD
36 1
Li	      4.41041      8.32346      8.58468         0.006771      0.000911     -0.016359
Li	      6.31933      2.11816      4.20424         0.007895      0.025070     -0.004810
Li	      4.26436      6.32778      2.25397         0.004260      0.025360     -0.004587
Li	      6.46160      6.29780      4.26087        -0.029735     -0.021979      0.013843
Li	      4.30994      4.16786      4.29897        -0.003992     -0.027222     -0.015506
Li	      4.24450      2.11780      6.23427        -0.082019      0.003979      0.025047
Li	      2.28529      6.27032      4.13439        -0.012026      0.014065     -0.002379
Li	      4.42112      6.21640      6.29890        -0.023621     -0.053608     -0.039447
Li	      8.54735      8.43484      8.46025        -0.026290     -0.000551     -0.012271
Sc	      2.27320      8.34412      6.34538         0.006720      0.003085      0.010790
Ti	      6.47520      0.10071      6.37884         0.105924      0.208853     -0.001227
Mn	      6.44494      4.19549      2.27607         0.009359      0.014068     -0.020016
Mn	      4.28676      0.10027      4.16852        -0.017437     -0.065998      0.056653
Mn	      6.29130      4.22337      6.34232        -0.007012     -0.009831      0.035277
Mn	      4.33203      8.32146      4.17820         0.017221     -0.056604     -0.040406
Mn	      6.57283      8.29002      6.35633         0.034256     -0.005037     -0.018412
V	      2.20896      4.23901      2.18384        -0.029558      0.111203      0.007190
Ni	      6.42434      6.30434      8.46255         0.042326      0.024076      0.048199
O	      2.14046      2.28756      2.05956         0.072387      0.039042      0.008944
O	      4.20757      4.24711      2.00754         0.039543      0.003141     -0.094937
O	      4.32366      1.94440      4.22840        -0.014305      0.036785      0.009827
O	      6.45598      4.19617      4.35843        -0.038170     -0.040460      0.037941
O	      6.52616      2.04248      6.32700         0.026587     -0.157491     -0.007697
O	      8.72661      4.19722      6.44575         0.158325      0.027462     -0.058396
O	      2.07437      4.15807      4.18686        -0.028187      0.007199      0.089865
O	      4.25715      6.47469      4.24113        -0.022114      0.012751      0.049190
O	      4.22227      4.15511      6.32515        -0.175567     -0.017979      0.005471
O	      6.43273      6.20890      6.39888        -0.035604     -0.136785     -0.105164
O	      6.55304      4.21428      8.38706         0.019351     -0.092675     -0.050796
O	      8.53197      6.06290      8.51103         0.104037     -0.099477     -0.031428
O	      2.02311      6.29976      6.41406        -0.141190      0.015548     -0.036921
O	      4.39692      8.52121      6.35957         0.117371      0.100899      0.041441
O	      4.32948      6.30081      8.54240        -0.069068     -0.026726     -0.010660
O	      6.52275      8.34024      8.33437        -0.022770      0.091315     -0.003113
O	      6.47912      6.18800     10.72181         0.015676      0.013382      0.149275
O	      8.75755      8.53933     10.63086        -0.009343      0.034230     -0.014422
