# total energy = -213.80675560 eV
 
CRYSTAL
PRIMVEC
0.000330 6.210341 6.244321 
6.334990 0.003788 6.241581 
4.225911 4.140973 0.000013 
PRIMCOORD
36 1
Li	      6.35780      6.17501     12.40653        -0.034571     -0.018442     -0.013685
Li	      2.19366      8.23452      6.13097         0.079245      0.023299     -0.045919
Li	      6.46827      8.25986     10.32683         0.054231     -0.042116      0.000208
Li	      4.19926      4.18968      4.15358        -0.060194     -0.009651      0.004146
Li	      6.32532      4.16213      6.24461        -0.016163     -0.029666      0.065561
Li	     10.46622      8.34917     10.48827        -0.040902     -0.013806      0.104610
Li	      2.04466      6.24955      4.28226        -0.041783      0.026635     -0.012363
Li	      2.04631      4.19271      6.21335        -0.070895     -0.029054     -0.013610
Li	      8.41032      8.35873      8.42903        -0.035115     -0.005791      0.048186
Sc	      4.18012      2.22804      6.19713         0.092386      0.098959     -0.066550
Ti	      8.43071      4.15794      8.33260        -0.028354      0.154131      0.065806
V	      6.33721      2.08263      8.31942        -0.121438      0.088366      0.089646
Cr	      6.32331      6.18628      4.15991        -0.087447      0.081668     -0.007051
Cu	      2.19091      6.09480      8.27288         0.127547     -0.234982     -0.044938
Ni	      4.28615      8.26402      8.26891        -0.044073      0.189696      0.059198
Ni	      8.46802     10.30153     10.43596         0.101814     -0.038197      0.118977
Ni	      4.20631      6.17095      6.23671         0.085277      0.078017     -0.163843
Ni	      6.28577      6.21911      8.39928         0.237370     -0.053676      0.101038
O	      2.23425      6.18027      6.36136        -0.237377     -0.056338      0.244646
O	      8.44507      8.43323     10.43009        -0.046964     -0.261616     -0.040639
O	      2.05477      2.12664      2.13754        -0.209070     -0.107400     -0.129985
O	      4.12943      4.18543      2.07467         0.037543      0.201348     -0.001921
O	      4.12698      1.95280      4.14234        -0.103023      0.144659      0.080581
O	      6.47932      4.16115      3.99879        -0.227509      0.026865     -0.142604
O	      6.28385      2.10857      6.50087         0.000748      0.002863      0.035187
O	      8.45075      4.22345      6.37096        -0.102670     -0.043951      0.284304
O	      2.14198      4.05379      4.02016        -0.005365     -0.019666     -0.211498
O	      4.29947      6.19839      4.01109         0.127610     -0.064896     -0.153384
O	      4.24626      4.22196      6.18435         0.071384     -0.154609      0.013542
O	      6.28010      6.19719      6.16161         0.149671     -0.057117      0.015351
O	      6.47350      4.10787      8.33660         0.111853     -0.124177     -0.039223
O	      8.50741      6.16572      8.35443         0.032776     -0.139462      0.060827
O	      4.20952      8.08206      6.29082        -0.000136      0.090982     -0.234722
O	      4.28705      6.25045      8.29913        -0.240667     -0.275384     -0.015209
O	      6.27580      8.21538      8.33112         0.232978      0.527120     -0.007868
O	      6.17934      6.21518     10.41685         0.211285      0.045388     -0.046803
