# total energy = -215.17570967 eV
 
CRYSTAL
PRIMVEC
0.015811 6.295851 6.405184 
6.161895 0.012147 6.408252 
4.111687 4.202821 0.004538 
PRIMCOORD
36 1
Li	      4.11580      4.16793      0.15623        -0.165691     -0.088261     -0.049234
Li	      2.09933      2.03960      0.17555         0.073862      0.078717      0.033224
Li	      6.02907      4.20245      2.02129         0.028170     -0.019561      0.023178
Li	      4.09420      2.25816      2.00802        -0.049429     -0.012842     -0.001041
Li	      6.18198      1.95091      8.35378        -0.033985      0.050028      0.005127
Li	      4.13441      4.14240      4.08101         0.023355      0.021352     -0.038735
Li	      6.20604      4.08422      6.37051         0.105713      0.020988     -0.040617
Li	      4.10837      8.41245      4.48582        -0.035478      0.029483      0.074194
Li	      4.06852      6.45743      6.43962        -0.055156     -0.056240      0.022526
Sc	      2.07572      6.24922      4.37066        -0.049340      0.102449     -0.038149
Ti	      6.03717      6.25951      4.19521        -0.142464     -0.197634     -0.423127
V	      4.26513      4.31705      8.43321         0.138878     -0.106434      0.179903
Cr	      8.24401      4.19647      4.34010        -0.050676     -0.459237     -0.020459
Cu	      2.10609      4.13751      2.07722        -0.210993      0.040229     -0.123691
Cu	      4.16573      2.09919      6.38979        -0.054473     -0.421408     -0.193225
Cu	      6.09211      8.44723      6.45476         0.138397      0.135878      0.001863
Ni	      6.13950      2.14660      4.28940         0.027285      0.053351     -0.152752
Ni	      6.19160      6.36374      8.49656         0.058177     -0.029982      0.081206
O	      4.17809      8.37047      6.46300        -0.044825     -0.049471      0.058242
O	      2.01981      2.15225      2.29604        -0.079981     -0.224230      0.355865
O	      3.97702      4.20567      2.15553         0.088610      0.043969     -0.005213
O	      4.07085      1.92872      4.25391        -0.144737      0.759995      0.326178
O	      6.22293      4.31324      4.29636        -0.272410      0.184486     -0.059540
O	      6.03725      2.12232      6.30514        -0.303914     -0.068385      0.132444
O	      8.21036      4.07050      6.20398        -0.022444      0.494326      0.520025
O	      2.08053      4.12634      4.39028         0.033705     -0.005972     -0.112471
O	      4.19502      6.26849      4.34402         0.232695      0.029890      0.060823
O	      4.09703      4.33964      6.67312         0.025337     -0.097630     -0.093813
O	      6.32786      6.42409      6.36892         0.262348     -0.045082     -0.025205
O	      6.09790      4.25702      8.49771         0.002782     -0.040717     -0.026089
O	      8.24433      6.48219      8.57768         0.129345      0.056972     -0.081931
O	      2.05455      6.25154      6.37348        -0.027396      0.113860      0.072228
O	      4.13763      6.13466      8.70041        -0.052344      0.102647     -0.363879
O	      6.34056      8.39834      8.56246         0.005708      0.156034      0.026854
O	      6.13929      6.34711     10.57279         0.312399     -0.117303     -0.015296
O	      8.21961      8.46244     10.52469         0.108971     -0.434267     -0.109414
