# total energy = -214.30701539 eV
 
CRYSTAL
PRIMVEC
-0.001756 6.217188 6.480034 
6.172030 0.000236 6.478189 
4.110443 4.139236 0.005021 
PRIMCOORD
36 1
Li	      4.07330     10.19851      6.43903         0.017511     -0.147421     -0.000026
Li	      2.14588      8.31003      6.43468         0.144962      0.114269     -0.027770
Li	      4.06090      8.37876      8.41039        -0.013826      0.000610     -0.249065
Li	      8.22318      4.10180      4.43309         0.031500     -0.061472      0.046944
Li	      2.15048      4.05886      2.16226         0.023285     -0.042371     -0.065814
Li	      4.07908      8.29447      4.50658        -0.097305      0.035034      0.104088
Li	      2.06297      6.17788      4.50231        -0.108066      0.150333      0.105573
Li	      1.93763      4.15211      6.32598        -0.241781      0.003370     -0.006987
Li	      4.11890      6.34036      6.35904         0.018875      0.100387      0.021045
Sc	     10.25755      6.25338      8.67029         0.062650      0.010486     -0.167276
Ti	      2.09178      6.26717      8.41154        -0.024885      0.056285     -0.569145
V	      6.10296      6.17510      8.73047        -0.014497      0.105219      0.154696
Cr	      6.19663      2.10109      4.35989         0.085023     -0.229399     -0.075488
Cu	      2.10057      2.09616      4.31194         0.053245     -0.006644     -0.078099
Cu	      4.10605      4.14520      4.35649         0.086284     -0.011521     -0.117704
Cu	      6.21032      4.17103      6.46241         0.047943     -0.029749      0.144252
Cu	      8.20046      8.28278      8.69769        -0.064029      0.004809      0.109818
Ni	      8.20782      6.19981      6.48212         0.012066     -0.045094      0.035743
O	      4.28385      4.08463      6.41713         0.171306      0.385477      0.273282
O	      4.08966      8.30230      6.42986         0.100549     -0.099108     -0.063313
O	      2.04353      1.93953      2.02686        -0.062640     -0.120115      0.012740
O	      4.23327      4.17669      2.17178        -0.005064      0.074532     -0.183655
O	      4.12975      2.14809      4.40151        -0.456708     -0.000842     -0.081745
O	      6.13846      4.13014      4.14752        -0.089364      0.299025     -0.136594
O	      6.15169      2.15244      6.39458         0.182958      0.344150      0.131253
O	      8.09878      4.21561      6.50387        -0.304359     -0.238702      0.078160
O	      2.17500      4.03341      4.33665        -0.047096     -0.216471     -0.056949
O	      4.20265      6.12975      4.27159         0.264580      0.043116      0.092725
O	      6.17949      6.16520      6.81100        -0.190322     -0.266756      0.027069
O	      6.07995      4.22279      8.83934         0.208861     -0.062336      0.164599
O	      8.15196      6.28433      8.62799         0.048802     -0.118425      0.106961
O	      2.06517      6.13332      6.61276         0.048185     -0.031575      0.356295
O	      4.11542      6.12907      8.65109        -0.116669      0.057936      0.013391
O	      6.18493      8.27038      8.76305        -0.091058     -0.003520     -0.009753
O	      6.14798      6.33394     10.59800        -0.015486     -0.023615      0.021088
O	      8.07479      8.28937     10.80881         0.334566     -0.029904     -0.110341
