# total energy = -215.04006846 eV
 
CRYSTAL
PRIMVEC
-0.010604 6.136636 6.239693 
6.405018 -0.023857 6.254001 
4.258801 4.089121 -0.005107 
PRIMCOORD
36 1
Li	      8.45861      2.06153      6.19057         0.001433     -0.012477      0.009564
Li	      6.36351      4.15435      2.20375         0.014813     -0.059322     -0.011083
Li	      4.29561      2.00012      2.20134         0.053490     -0.012833     -0.040849
Li	      6.40522      8.18416     10.29056         0.016305     -0.025027     -0.090787
Li	      2.24178      1.91964      4.12530        -0.007696      0.038258      0.029918
Li	      4.38190      1.99293      6.12873         0.079057      0.045450     -0.020698
Li	     10.49662      8.22351     10.37676         0.022868     -0.014555      0.022848
Li	      8.56090      8.11907      8.43674        -0.035977      0.075235     -0.076994
Li	      6.38896      6.15399      8.42136        -0.005500     -0.008521     -0.009806
Sc	      2.09396      4.04101      2.10066        -0.000985     -0.015020      0.115276
Ti	      6.39672      8.10584      6.35805         0.116991     -0.235073      0.335575
V	      4.23150      6.18929      6.31506        -0.117937     -0.098873     -0.233671
Cr	      6.43135      6.13026     12.46757         0.009275     -0.060862      0.068855
Cu	      8.51023      4.07237      4.17309        -0.019177      0.020526      0.031554
Cu	      0.01060      2.05831      2.09895        -0.084695     -0.044339      0.219831
Cu	      4.30758      3.99873      4.14167        -0.012331     -0.069816     -0.063763
Cu	      6.41822      4.00989      6.21149        -0.054533      0.106470      0.116502
Cu	      8.49341      6.21462     10.37967        -0.002523      0.043148      0.061947
O	      4.19548      6.12975      8.06461        -0.019100     -0.021875      0.410313
O	      6.44721      6.14612     10.48827        -0.153612      0.039780     -0.054367
O	      8.52640      8.25543     10.40552        -0.054218     -0.013534     -0.003440
O	      2.00085      2.02481      2.13155         0.139701     -0.014704     -0.004511
O	      4.26378      4.10586      2.09318        -0.026696     -0.082673     -0.178200
O	      4.26619      1.96031      4.15021         0.033833     -0.081453      0.019015
O	      6.35476      4.02825      4.29330         0.133887     -0.021278     -0.058679
O	      6.41285      1.97662      6.37658         0.042803      0.135335     -0.131541
O	      8.73878      4.07514      6.26860         0.092449      0.004774     -0.047917
O	      2.20090      4.14773      4.20306        -0.082992     -0.115113     -0.071442
O	      4.14125      6.11344      4.25557         0.070591      0.110368     -0.051801
O	      4.10725      4.15600      6.12123        -0.260790     -0.123900      0.146614
O	      6.19710      6.16734      6.20385         0.225682      0.156017     -0.042259
O	      6.42059      4.02669      8.18559        -0.043917      0.217432      0.051553
O	      8.60261      6.14377      8.43728        -0.029449      0.014601     -0.140806
O	      2.13164      6.08644      6.15417        -0.122086     -0.006726      0.052795
O	      4.39337      8.16582      6.19787         0.120074      0.189000     -0.023343
O	      6.41518      8.17911      8.15455        -0.039039     -0.058420     -0.336201
