# total energy = -228.13420524 eV
 
CRYSTAL
PRIMVEC
-0.051433 6.490819 6.178181 
6.322979 -0.019257 6.146776 
4.196133 4.285965 0.006765 
PRIMCOORD
36 1
Li	      6.36379      6.42397     12.15317        -0.026223      0.079716     -0.019949
Li	      4.31588      8.42911      8.18751         0.009749      0.042473      0.075718
Li	      4.27971      6.49590     10.24346        -0.015125      0.065039      0.065971
Li	      6.23781      8.39646     10.19042        -0.083904      0.012374      0.029102
Li	      4.26705      4.18478      4.26913        -0.007690     -0.073851     -0.097986
Li	      8.22911      6.53734     10.31091         0.011551      0.012876     -0.043919
Li	      6.16225      8.68487      6.22806         0.019386      0.008763     -0.020538
Li	      8.23252      8.68416      8.22747        -0.018358     -0.041054      0.043122
Li	      6.09730      6.66664      8.27384         0.101745      0.023570     -0.055555
Sc	      6.31793     10.60213      8.34248        -0.106504     -0.108008      0.189276
Ti	     10.44303      6.48533      8.27923        -0.354531      0.059516     -0.207720
Ti	      2.22387      4.28165      2.10076         0.055074      0.298801      0.144141
Cr	      6.25827      4.46185     10.25040         0.077910      0.068703     -0.171056
Fe	      8.43175      8.56577     12.18585        -0.452776      0.235648      0.173128
Co	      4.10510      2.21203      6.00743         0.379040     -0.123841      1.429809
Co	      6.27536      4.27522      6.16265        -0.067679     -0.089374     -0.078385
Cu	      4.16192      6.42172      6.19977         0.268178     -0.147307     -0.120679
Ni	      6.30495      6.40776      4.15991         0.385587     -0.065482      0.035514
O	      2.02741      2.25571      2.04212        -0.033498      0.047602     -0.183151
O	      4.13567      4.48346      2.07315        -0.198398      0.047830      0.000326
O	      4.16021      2.11644      4.20726        -0.097326      0.271510     -0.476341
O	      6.26955      4.36269      4.23283         0.004227     -0.121671     -0.030516
O	      6.36104      2.28526      6.25441         0.416894      0.042699      0.129389
O	      8.25361      4.27228      6.29503        -0.010869     -0.010505     -0.120110
O	      2.00233      4.28706      3.99895        -0.017453      0.070648     -0.191037
O	      4.22352      6.59151      4.05851        -0.229636      0.054915     -0.152705
O	      4.35245      4.14049      6.21594         0.134450      0.208678     -0.317129
O	      6.27326      6.22172      6.19005        -0.558662     -0.150088      0.043320
O	      6.41228      4.16474      8.17590         0.029525     -0.136745      0.069979
O	      8.54328      6.27395      8.14004         0.187279     -0.145495     -0.137007
O	      2.11335      6.61594      6.21552        -0.107555     -0.073235     -0.057266
O	      4.06702      8.75918      6.08103         0.162555     -0.221462      0.164886
O	      4.12114      6.47744      8.14148         0.085638     -0.062242      0.075226
O	      6.23264      8.66941      8.20234         0.010624      0.087717     -0.054635
O	      6.28900      6.39216     10.21875         0.005524     -0.170154      0.007599
O	      8.46257      8.62633     10.28671         0.041252      0.001437     -0.140822
