# total energy = -228.78780005 eV
 
CRYSTAL
PRIMVEC
0.028419 6.150960 6.312482 
6.314963 0.022741 6.318348 
4.225728 4.120214 -0.000570 
PRIMCOORD
36 1
Li	      8.42308      2.11500      6.32176         0.025332      0.009523     -0.039603
Li	      8.30289      4.08042      4.21389        -0.046063     -0.049668     -0.019807
Li	      6.26617      6.17878      4.20757         0.053336     -0.007091      0.037020
Li	      4.30116      4.12232      4.27943         0.055575     -0.060927      0.004353
Li	      6.31331      4.12656      6.21458         0.006281      0.008676     -0.092375
Li	      4.34444      8.17430      4.29522        -0.052947      0.012938      0.026593
Li	      6.38055      8.18017      6.30926         0.015524      0.060828     -0.139190
Li	      4.27969      6.14516      6.27975        -0.022328     -0.041394     -0.032518
Li	      4.12183      4.13375      8.31678         0.069824      0.039488      0.016351
Sc	     10.47956     10.19879     12.61535         0.115600     -0.178676     -0.120702
Ti	      2.26057      6.15642      4.33392         0.052495      0.264299      0.315031
Ti	      6.19419      6.16548      8.31717        -0.291222     -0.442389     -0.074746
Cr	      6.35670      2.14507      8.44680         0.111832      0.083023      0.182825
Fe	      4.22128      2.21124      6.19846        -0.119412     -0.210821     -0.107091
Co	      6.37030      8.25345     10.49928         0.111629      0.059404     -0.197518
Co	      8.43871      4.16550      8.44927         0.029688     -0.143975      0.036898
Ni	      2.21091      6.11531      8.40673        -0.020440      0.121974     -0.013250
Ni	      4.18381      2.05823      2.11778        -0.188978      0.074970      0.140499
O	      2.05381      2.12823      2.16410        -0.128413      0.219677     -0.026383
O	      4.16219      4.18718      2.10130        -0.084890      0.160829     -0.015972
O	      4.39144      2.03095      4.22919         0.121851     -0.025703     -0.135791
O	      6.35632      3.98338      4.08536        -0.004549     -0.098100      0.088154
O	      6.27512      2.08995      6.45633         0.017777     -0.024194     -0.738015
O	      8.42700      4.23128      6.46975        -0.052448      0.002284      0.137635
O	      2.12681      4.23348      4.06134        -0.023728      0.108696      0.008769
O	      4.13875      6.22981      4.13800        -0.100972     -0.062012     -0.080162
O	      4.23127      4.05700      6.32285        -0.049960      0.199058      0.065710
O	      6.40704      6.16232      6.45264        -0.027017      0.082121      0.382449
O	      6.49555      4.19130      8.48606        -0.065323      0.107925     -0.038827
O	      8.47151      6.11507      8.48292         0.019484      0.001833     -0.043632
O	      2.10721      6.12259      6.23063        -0.007342     -0.002444     -0.230260
O	      4.20140      8.20923      6.37327         0.036847      0.078686     -0.041400
O	      4.33112      6.13555      8.41789         0.435927     -0.089510     -0.093573
O	      6.30911      8.13677      8.38103         0.114290     -0.020173      1.025579
O	      6.43446      6.27845     10.47102         0.076114     -0.113324     -0.109298
O	      8.30259      8.12485     10.51606        -0.183374     -0.125832     -0.077751
