# total energy = -231.31735963 eV
 
CRYSTAL
PRIMVEC
0.007953 6.250732 6.320545 
6.254719 0.006310 6.322440 
4.169058 4.167475 0.004841 
PRIMCOORD
36 1
Li	      4.17698      4.13456      0.08528         0.043147     -0.101349     -0.044049
Li	      8.23136      2.15750      6.38976        -0.015398      0.003822     -0.037754
Li	      4.17416      2.16926      2.09629         0.045767     -0.018349     -0.021913
Li	      6.22571      2.09200      4.23797         0.022745     -0.006289     -0.002640
Li	      6.23386      2.09389      8.33682         0.041579     -0.013180     -0.013643
Li	      4.17194      4.16918      4.14876        -0.014068      0.002009      0.018013
Li	      6.24278      4.19239     10.50097         0.023143     -0.012566      0.104112
Li	      8.38661      8.27899      8.44907        -0.041671     -0.000148      0.006026
Li	      6.34874      6.18698      8.44507         0.006929      0.065954     -0.010766
Sc	      2.09334      2.13761      4.13722        -0.101062      0.110842     -0.019631
Ti	      4.31262      6.12143     10.46202         0.236796     -0.199891     -0.080222
Ti	      4.14477      6.34797      6.35693        -0.116464      0.400262     -0.054701
Cr	      6.15432      4.17925      2.11443         0.024669     -0.515299      0.116432
Fe	      4.31056      2.10462      6.38009        -0.279051      0.046863     -0.161573
Co	      6.26345      8.33986      6.41977        -0.242639      0.148125     -0.397152
Co	      6.26070      4.14341      6.34699         0.126775     -0.053777     -0.070694
Co	      8.30134      6.31308     10.48644        -0.018941     -0.079021      0.041807
Cu	      8.38078      4.16946      8.38451         0.093534     -0.102288      0.158778
O	      2.06311      2.05726      2.12241        -0.020536      0.117264      0.119006
O	      4.16945      4.16098      2.10488        -0.124401      0.067694      0.006897
O	      4.13196      1.98782      4.32478         0.075709     -0.020667     -0.012886
O	      6.30865      4.18989      4.17852         0.019663     -0.026045     -0.011757
O	      6.21523      2.23276      6.28667         0.111428      0.091792      0.006289
O	      8.20398      4.21212      6.13404        -0.018785      0.029432     -0.047559
O	      2.09371      4.18683      4.49009        -0.079596      0.348672      0.190124
O	      4.15086      6.25740      4.43874        -0.006911      0.013939      0.125489
O	      4.28622      4.16832      6.36804        -0.102132      0.016932      0.050704
O	      6.17824      6.19202      6.34152         0.071156     -0.168760      0.051034
O	      6.40100      4.14996      8.22391         0.060802      0.042034     -0.068665
O	      8.34875      6.18527      8.37747         0.035153     -0.106435      0.049701
O	      2.15383      6.23697      6.40327         0.225275     -0.232697     -0.084812
O	      4.19505      8.19048      6.36675         0.275836     -0.231755      0.085574
O	      4.07626      6.24780      8.44181        -0.011434      0.025981      0.077741
O	      6.26346      8.40536      8.25621        -0.142181      0.276630      0.090149
O	      6.16678      6.25495     10.52490        -0.215341     -0.038779     -0.084282
O	      8.35956      8.42111     10.49984         0.010503      0.119047     -0.073176
