# total energy = -230.54792019 eV
 
CRYSTAL
PRIMVEC
0.023131 6.292187 6.280209 
6.221122 0.019808 6.284898 
4.152094 4.202404 0.008485 
PRIMCOORD
36 1
Li	      6.22546      6.28643     12.40576        -0.002134      0.005345     -0.079770
Li	      8.24055      4.21804      4.21084         0.000939     -0.012793      0.023792
Li	      6.17438      2.24172      4.21664         0.031971      0.077490      0.032893
Li	      4.16082      6.34299      2.23029         0.007230      0.005648      0.049388
Li	      6.15892      6.23274      4.32235        -0.020427     -0.004061     -0.000451
Li	      4.24390      4.36348      4.27013        -0.012727      0.031057      0.086237
Li	      6.18326      4.27227      6.08881         0.020419      0.019571     -0.041233
Li	      2.10801      6.25913      4.23764         0.010624      0.011751      0.010455
Li	      4.18010      6.29731      6.19187         0.019423     -0.008831     -0.060805
Sc	      8.24204      8.36428     12.43998        -0.103444      0.025427     -0.229029
Ti	      4.17115      2.06715      2.22172         0.019183     -0.143873      0.446525
Ti	      8.32415      4.29965      8.42925        -0.089313      0.229876      0.129303
Cr	      6.17214      4.23177      2.17595         0.041019      0.058052      0.105375
Fe	      4.25196      4.20276      8.38310        -0.039888     -0.083449      0.008737
Co	      4.22325      2.11495      6.19090         0.096775     -0.043943     -0.008616
Co	      4.17916      8.34735      4.21465        -0.035371      0.087196     -0.024036
Co	      2.11419      4.25230      6.19751         0.073519     -0.207702     -0.004329
Ni	      6.25280      6.29318      8.41320         0.027218     -0.008759     -0.002449
O	      2.16247      2.12118      2.04983         0.101462     -0.024394      0.009518
O	      4.09154      4.08094      2.13279        -0.006547     -0.107604      0.036982
O	      4.16490      2.06238      4.07363         0.010819     -0.007224     -0.440811
O	      6.19123      4.24965      4.08436         0.000277     -0.003753      0.007036
O	      6.10884      2.08873      6.22805        -0.024975     -0.023065     -0.005439
O	      8.27530      4.19135      6.45739        -0.009930     -0.053037      0.033019
O	      2.10128      4.20684      4.05036        -0.088666      0.034359     -0.133268
O	      4.18079      6.50814      4.21847        -0.022525     -0.072942      0.042577
O	      4.17403      4.18658      6.42333        -0.023195      0.072543     -0.078854
O	      6.45905      6.36504      6.36034         0.015973      0.154356     -0.115833
O	      6.27824      4.20284      8.41138         0.164817     -0.030350     -0.123647
O	      8.34085      6.25643      8.35745         0.097276     -0.160689     -0.021626
O	      2.04031      6.31249      6.39898        -0.023595     -0.004020     -0.049410
O	      4.16664      8.36411      6.38609        -0.067486      0.071388      0.166897
O	      4.11133      6.32725      8.38024        -0.068148      0.123164     -0.046570
O	      6.20751      8.45662      8.41766        -0.076257      0.033172     -0.031392
O	      6.21580      6.03363     10.40196        -0.042039     -0.033207      0.182682
O	      8.31079      8.36648     10.37576         0.017724     -0.006697      0.126151
