# total energy = -233.22915292 eV
 
CRYSTAL
PRIMVEC
-0.023674 6.428875 6.202681 
6.147164 -0.007587 6.187454 
4.107177 4.284676 -0.014548 
PRIMCOORD
36 1
Li	      4.11367      4.25932      0.06463         0.011273      0.021745      0.056202
Li	      4.10489      2.17971      2.02964        -0.049519      0.033144      0.033521
Li	      6.12953      2.13914      8.18987         0.031101      0.012613      0.049375
Li	      4.05614      2.24774      6.24446        -0.057850      0.080988      0.002168
Li	      6.02990      4.27602      6.20105        -0.037702     -0.024593      0.037806
Li	      4.11709      8.50814      4.11100         0.019112     -0.140562     -0.035605
Li	      4.12469      6.39290      6.24640         0.004032     -0.042564     -0.017473
Li	      4.16371      4.32234      8.11965         0.030114      0.015758     -0.038170
Li	      6.11628      6.31548      8.14478        -0.024128     -0.048674     -0.062918
Sc	      2.09132      6.46848      4.13806         0.268002     -0.115451     -0.040091
Ti	      4.17948      6.49457     10.28510        -0.106099      0.491956     -0.267290
Ti	      8.10154      4.33013      8.13166        -0.257724      0.013430      0.029119
Cr	      6.11269      4.30148      2.05669        -0.072999     -0.005297     -0.138787
Fe	      6.08165      8.46823      6.27029         0.130735      0.071455      0.021500
Co	      6.08741      6.46949      4.16642        -0.089573      0.101790      0.091835
Co	      4.09019      4.33615      4.17704        -0.003943      0.027697      0.048370
Co	      2.11277      8.57884      6.21009        -0.215529     -0.105287      0.003344
Co	      6.14931      8.56680     10.33158         0.119029      0.221825     -0.002781
O	      2.05346      2.10144      2.06374        -0.040573      0.055849      0.184227
O	      4.07967      4.26487      2.12451        -0.033718     -0.016870     -0.042477
O	      4.13966      2.03262      4.18898         0.453367     -0.463781      0.020834
O	      6.25860      4.28796      4.08254        -0.171855     -0.890759      0.103779
O	      6.35124      2.13112      6.00870         0.123615      0.020729     -0.250918
O	      8.24659      4.23194      6.18776         0.005204      0.007008     -0.038215
O	      1.96969      4.33874      4.07178         0.039985      0.077004      0.054539
O	      4.09657      6.40703      4.10821         0.140168      0.117963      0.071048
O	      3.95043      4.26543      6.16867         0.016147     -0.020380      0.027444
O	      6.09734      6.56129      6.16413        -0.061089     -0.192869     -0.425507
O	      6.26921      4.23712      8.18652         0.299342      0.033234      0.018559
O	      8.19340      6.22528      8.25082        -0.047452     -0.155887      0.033242
O	      2.00230      6.36116      6.25973        -0.027410      0.019287     -0.031101
O	      4.03194      8.54860      6.21516        -0.040750      0.047059     -0.101091
O	      4.01227      6.41103      8.41599         0.030828      0.024488      0.375358
O	      6.12157      8.71109      8.32840        -0.022346     -0.002614      0.209669
O	      6.06344      6.45207     10.27467         0.084645      0.761748      0.079452
O	      8.15880      8.63352     10.34712        -0.446443     -0.031184     -0.058968
