# total energy = -229.78094858 eV
 
CRYSTAL
PRIMVEC
-0.000264 6.236079 6.517802 
6.188088 0.023809 6.493324 
4.133544 4.149361 0.007662 
PRIMCOORD
36 1
Li	      8.22680      8.35338     12.65939         0.014077      0.012549      0.007888
Li	      6.21148      4.14876      2.20815         0.072232     -0.035906     -0.014509
Li	      8.25731     10.21933     10.84211         0.041070      0.029100     -0.070707
Li	      6.40345      8.36851     10.77567        -0.032557      0.015508     -0.037698
Li	      8.25185      4.18921      8.67448        -0.016397      0.071844     -0.043078
Li	     10.13236      8.35144     10.69935        -0.032134      0.000070     -0.019758
Li	      8.20342      6.44064     10.77997        -0.004503      0.076129     -0.074575
Li	      6.20839      8.29118      6.51521         0.044116      0.016298      0.039071
Li	      8.23018      8.28941      8.88760        -0.010473      0.021934     -0.070175
Sc	      3.99334      6.21875      6.51982        -0.045441     -0.046652      0.193442
Ti	      6.20484      6.22431     12.82191         0.073046     -0.098152     -0.061931
Ti	      4.24439      8.37403      8.73515         0.273595     -0.325573      0.058693
Cr	      2.07318      2.13445      4.28911        -0.112365     -0.000272     -0.088912
Fe	     10.24272      6.25079      8.70466        -0.242688     -0.039990      0.081759
Fe	      6.28172      4.14219      6.53727        -0.038807     -0.105906      0.006834
Co	      6.25606      6.19828      8.81184        -0.272097      0.179161      0.398640
Cu	      4.11639      4.16422      4.39169        -0.016101      0.038393      0.008644
Ni	      8.26191      6.28296      6.56992        -0.006935      0.062242      0.036575
O	      8.26359      8.34660     10.78913        -0.035094     -0.053070      0.080788
O	      2.04976      2.02889      2.41880         0.024912      0.016151      0.128669
O	      4.12832      4.12107      2.00088         0.044419     -0.121116     -0.269214
O	      4.06875      2.14708      4.22099        -0.069576     -0.115838     -0.032358
O	      6.11687      4.29877      4.49883         0.051729      0.093420      0.022401
O	      6.19572      2.06257      6.61497         0.118917     -0.087002     -0.070184
O	      8.30269      4.23094      6.45722         0.130638     -0.117718     -0.022402
O	      2.15181      3.96195      4.40618        -0.044663     -0.151500      0.021441
O	      4.18497      6.20860      4.29990         0.110689      0.141890      0.023411
O	      4.20736      4.18478      6.62236         0.023230      0.039794      0.063632
O	      6.19434      6.20483      6.38652        -0.044679      0.000705      0.122085
O	      6.25705      4.12078      8.56284         0.076620      0.005540     -0.066811
O	      8.28708      6.20364      8.65410         0.644293     -0.007135     -0.059031
O	      1.96517      6.20054      6.49119        -0.196752      0.051876     -0.030781
O	      4.07694      8.38401      6.69216         0.008528      0.161350      0.013559
O	      4.15995      6.41573      8.59848        -0.463870      0.225993     -0.191285
O	      6.07439      8.29651      8.74619        -0.119154      0.034091     -0.065859
O	      6.19769      6.22432     10.98888         0.052177      0.011794     -0.018263
