# total energy = -230.07318826 eV
 
CRYSTAL
PRIMVEC
-0.015870 6.388196 6.333673 
6.116863 -0.036718 6.354681 
4.071558 4.266771 -0.018436 
PRIMCOORD
36 1
Li	      4.12966     10.54868      6.40125        -0.029574     -0.021163      0.010646
Li	      2.01684      2.11366      0.11154        -0.001965     -0.053320     -0.077434
Li	      4.07247      8.55844      8.29643        -0.054749     -0.003839     -0.039665
Li	      4.06643      6.25488      2.12486        -0.028906     -0.012490     -0.063372
Li	      2.19153      4.26779      2.01090        -0.067939      0.033041      0.016037
Li	      4.05129      4.34835      4.10478        -0.019127      0.019760      0.015375
Li	      2.03498      6.33267      4.26806         0.030197      0.015645      0.044702
Li	      3.99718      6.42300      6.36554         0.011342      0.029472     -0.088093
Li	      8.09734      8.55399      8.46063         0.023721     -0.084298      0.035948
Sc	      2.05888      2.16680      4.04139        -0.057360      0.153789      0.077568
Ti	      8.18248      6.39150      6.48213         0.369585      0.072345      0.389535
Ti	      4.00470      8.52168      4.29131        -0.037016     -0.456726      0.296857
Cr	      8.14680     10.62506     10.57012        -0.145103     -0.057873      0.128493
Fe	      1.94165      6.34532      8.33150         0.126704      0.005239      0.009426
Fe	      6.05006      4.25856      6.49551        -0.032582      0.040780     -0.108534
Co	      2.04328      4.24209      6.32668        -0.210925      0.294440      0.101052
Cu	      6.13290      8.45494     10.54505         0.174445     -0.028796     -0.121132
Cu	      6.03378      6.42246      8.47469         0.167266     -0.072117      0.091572
O	      2.06208      1.99284      2.06002         0.011873     -0.019423      0.034998
O	      4.13539      4.22987      2.11936         0.000531     -0.059680     -0.020537
O	      4.19490      1.98447      4.30490        -0.381246     -0.018495      0.077950
O	      6.13753      4.32451      4.28383         0.116897     -0.056168     -0.118855
O	      6.03337      2.26649      6.34399        -0.223836     -0.045703      0.359359
O	      8.05565      4.39976      6.29696         0.074801      0.061097     -0.042084
O	      1.95948      4.25541      4.32785        -0.086433     -0.094764     -0.477243
O	      4.06208      6.60675      4.11963         0.064950      0.167632      0.017763
O	      4.04238      4.12622      6.29477         0.801270     -0.280427      0.039045
O	      6.17205      6.44434      6.18474         0.071298     -0.689726      0.011649
O	      6.08891      4.37939      8.45235        -0.000280      0.067305      0.160579
O	      8.08306      6.37067      8.32269         0.055259      0.011523     -0.417399
O	      2.07141      6.14479      6.39248         0.013910      0.866463      0.103080
O	      4.16028      8.46798      6.20095        -0.882221     -0.064842     -0.460335
O	      4.03789      6.33926      8.60185        -0.124576      0.015537     -0.002452
O	      6.09702      8.46127      8.29825        -0.023096      0.028504      0.176469
O	      6.06231      6.21393     10.69014        -0.026423      0.098337     -0.082800
O	      8.12288      8.57736     10.63701         0.319308      0.138940     -0.078168
