# total energy = -229.35171214 eV
 
CRYSTAL
PRIMVEC
-0.003990 6.236106 6.239633 
6.324574 -0.014969 6.250660 
4.227231 4.175512 -0.020670 
PRIMCOORD
36 1
Li	      8.47677      8.34338     12.39037         0.041643     -0.028523     -0.012019
Li	      4.22595      2.10775      2.21754         0.003965     -0.020755     -0.068721
Li	      6.09015      2.06477      4.22354         0.000492      0.090667     -0.043448
Li	      2.25842      2.13305      4.17962        -0.052776     -0.023976      0.039956
Li	      4.09710      3.95144      4.26382         0.018510     -0.039618      0.078681
Li	      4.22242      2.03694      6.07360        -0.057396      0.042800      0.081193
Li	      2.14472      6.21589      4.26032         0.025119      0.038148      0.053697
Li	      2.04044      4.14953      6.15132        -0.005698     -0.005873      0.056075
Li	      4.29786      6.22364      6.11897        -0.005090      0.022579      0.060143
Sc	      8.39096      8.26085      8.32693        -0.045809      0.058279     -0.144034
Ti	      2.12715      6.27087      8.18877         0.265343      0.026433     -0.503613
Ti	      6.31015      4.17378      6.06651        -0.095264      0.248203     -0.380891
Cr	      4.30591      8.29787      4.21276         0.026216     -0.266949      0.032369
Fe	      4.20572      6.19333      2.08730        -0.047643      0.066239      0.038452
Fe	      6.31808      6.32060      8.33008        -0.040576     -0.012666     -0.050229
Co	      6.30596     -0.00825      6.22824        -0.243091      0.087346     -0.268390
Ni	      4.22310      0.09274      4.20070        -0.086514     -0.044675     -0.026852
Ni	      2.14214      4.12121      2.08784         0.022447     -0.030534     -0.032618
O	      1.98855      1.95444      2.13227         0.091233     -0.172821     -0.061740
O	      4.25036      4.18181      1.93048         0.007575     -0.042259      0.144740
O	      4.18901      2.05708      4.14166         0.022356      0.077901     -0.014638
O	      6.35094      4.13420      4.19879        -0.106655     -0.030740      0.244326
O	      6.35057      2.08369      6.33252         0.011417      0.427378     -0.030025
O	      8.49833      4.13599      6.27137        -0.847740      0.044340      0.059053
O	      1.95776      4.18753      4.12883        -0.149364      0.015366      0.073356
O	      4.19461      6.42447      4.12718        -0.017346      0.186419     -0.053289
O	      4.41983      4.14794      6.25718         0.195613     -0.044735      0.023575
O	      6.34470      6.06773      6.32844         0.051011     -0.207323     -0.070462
O	      6.35992      4.08822      8.32690        -0.020541      0.009281      0.089821
O	      8.50157      6.20624      8.37753        -0.016567      0.048382      0.019351
O	      1.95316      6.25460      6.32256         0.892397      0.124019      0.646092
O	      4.24939      8.48621      6.11659         0.012766     -0.631679     -0.136643
O	      4.05348      6.24332      8.26844        -0.101851     -0.026794      0.064988
O	      6.35431      8.44406      8.30902         0.003472      0.168476      0.041220
O	      6.32423      6.17010     10.47019         0.104947     -0.012798     -0.005243
O	      8.67554      8.43827     10.34573         0.143398     -0.139534      0.055765
