# total energy = -231.97725214 eV
 
CRYSTAL
PRIMVEC
-0.008269 6.325391 6.346967 
6.348940 -0.025684 6.364334 
4.201370 4.197168 0.013958 
PRIMCOORD
36 1
Li	      8.45213      8.43078     12.53992         0.118349      0.005011     -0.018952
Li	      4.31383      8.30982      8.51249         0.023189      0.001327     -0.121409
Li	      4.32116      6.35662     10.61464         0.048510     -0.017031      0.052149
Li	      6.28145      2.01680      4.29193        -0.003912      0.028213      0.059384
Li	      4.19683      2.07311      6.23951         0.040770     -0.039574      0.016589
Li	     10.50010      8.43455     10.68220        -0.012417      0.045818      0.140951
Li	      6.24623      8.32305      6.36608        -0.154550      0.054076     -0.028409
Li	      4.30357      6.35487      6.32997        -0.073118      0.057593     -0.022856
Li	      6.26525      6.35979      8.45899         0.007612     -0.032349     -0.034582
Sc	      2.10353      6.33379      8.38058        -0.059871      0.004700     -0.266628
Ti	      6.32273      2.18057      8.40883         0.048317      0.047225     -0.179735
Ti	      4.14757      4.29810      8.46522        -0.106194      0.179991      0.255514
Cr	      2.07196      6.33044      4.30253        -0.207258     -0.027015      0.257974
Fe	      8.45435      4.18440      8.45617        -0.016457      0.003019     -0.147921
Fe	      6.39221      6.28059      4.38993        -0.110755      0.092599     -0.317710
Co	      4.23156      4.14159      4.35072        -0.261740      0.127390     -0.278048
Co	      4.15474     10.32011      6.27117        -0.065901      1.143314      0.146346
Cu	      6.37846      4.21607      6.32221         0.007960     -0.078007      0.063273
O	      1.95766      2.15846      2.20439        -0.138343     -0.040716      0.104423
O	      4.15064      4.33140      2.06008        -0.011657     -0.065395     -0.091590
O	      4.12702      2.12889      4.19262         0.267989      0.520941     -0.004288
O	      6.27056      4.28239      4.11537        -0.349404     -0.146610     -0.044952
O	      6.33398      2.08520      6.52676        -0.020555     -0.130816      0.081213
O	      8.40510      4.18475      6.49876        -0.184961      0.024160      0.067518
O	      2.12715      4.22402      4.16025         0.468582     -0.073966      0.104285
O	      4.16542      6.24333      4.16509         0.040488     -0.516483      0.022407
O	      4.38399      4.13644      6.54109        -0.002247      0.022352     -0.030588
O	      6.31586      6.24203      6.29537        -0.028384      0.044163      0.294428
O	      6.35569      4.09265      8.60406        -0.102917     -0.267175      0.146512
O	      8.52546      6.27844      8.60704         0.052104      0.090650      0.006205
O	      2.03766      6.36411      6.29692         0.317726     -0.104089     -0.016391
O	      4.16735      8.52896      6.43737         0.069400     -0.356043     -0.191918
O	      4.19197      6.18012      8.47214        -0.003947     -0.185977      0.016985
O	      6.46783      8.44583      8.42488         0.206223     -0.045858      0.042262
O	      6.41976      6.32316     10.67967         0.219999     -0.347085      0.128185
O	      8.44771      8.29501     10.44102        -0.022631     -0.018353     -0.210625
