# total energy = -98.48977490 eV
 
CRYSTAL
PRIMVEC
0.000027 2.048780 2.048776 
18.113337 -0.000286 0.001195 
-0.000163 2.048761 -2.048756 
PRIMCOORD
16 1
Li	      0.64117      2.04962      2.04711        -0.003829     -0.000691      0.000291
Li	      2.64028      2.04871     -0.00011        -0.075915     -0.000181     -0.000180
Li	      6.52977      2.04835      0.00058         0.000054     -0.000043      0.000064
Li	     10.83484      2.04845     -0.00020         0.046897      0.000485      0.000657
Ti	     13.34546      2.04890      2.04759        -0.833369     -0.001474      0.000540
Ti	     16.18021      2.04944     -0.00180         0.994734     -0.000242      0.002021
Ni	      4.53124      4.09726      0.00033         0.055723      0.000075     -0.000142
Ni	      8.57312      4.09700      0.00051         0.088068      0.000040     -0.000130
O	     13.75049      2.04877     -0.00127        -0.019334      0.002218      0.001338
O	     15.74378      2.04948      2.04703         0.008239     -0.002311      0.002759
O	      8.96515      2.04829      0.00047        -0.006807      0.000169      0.000017
O	     11.59023      2.04876      2.04798         0.825682      0.000180     -0.001822
O	      4.56391      2.04849      0.00032        -0.010612      0.000081      0.000100
O	      6.62125      4.09710      0.00057        -0.121852      0.000385     -0.000281
O	     17.92839      2.04923     -0.00123        -0.931192      0.001379     -0.005589
O	      2.47065      2.04865      2.04875        -0.016486     -0.000071      0.000358
