# total energy = -227.29521892 eV
 
CRYSTAL
PRIMVEC
0.017047 6.368761 6.229488 
6.190902 0.010860 6.235400 
4.141525 4.263898 -0.006976 
PRIMCOORD
36 1
Li	      0.05367      6.32996      6.21574         0.007072     -0.028427      0.004239
Li	      6.22576     10.53832      8.27593         0.060980     -0.143549      0.020960
Li	      4.29651      8.51369      8.21389         0.167949     -0.066518      0.018944
Li	      6.22524      8.45337     10.35516        -0.026463      0.034410     -0.127012
Li	      6.21105      6.40925      4.32085         0.019374     -0.028731      0.014938
Li	      8.14325      6.46795      6.21470        -0.071791      0.057890      0.024241
Li	      6.17399      4.35977      6.24218        -0.002442      0.135465     -0.067347
Li	      6.15755      8.41125      6.23851         0.052448     -0.084215      0.133435
Li	      6.12685      6.44329      8.19703        -0.044027      0.188240     -0.046777
Sc	      8.21335      4.34950      8.24895         0.012838      0.014868     -0.065828
Ti	      2.04150      2.09030      0.07054         0.059105     -0.038443     -0.085296
Ti	      4.30273      4.11491      4.18772         0.363779     -0.273500      0.416035
Cr	      4.08553      4.27823      8.24740         0.016787      0.083668     -0.005660
Fe	      4.16397      0.15797      4.13814        -0.234518     -0.002515     -0.102281
Fe	      8.18547      6.37417     10.41469        -0.125760      0.113478      0.028769
Cu	      0.04467      2.08508      2.06164        -0.053551      0.102130      0.086450
Ni	      4.14924      8.51154      4.17289         0.046843      0.021057      0.027350
Ni	      4.21831      6.40304      6.25453         0.023878     -0.046637      0.152684
O	      6.16779      6.42639      6.24999         0.154980     -0.172984     -0.066760
O	      2.09879      2.22329      1.95859        -0.139903     -0.069298     -0.061218
O	      4.11833      4.18430      2.25995         0.003672      0.228563     -0.163339
O	      4.17307      2.17809      4.19223        -0.060339      0.269954     -0.030198
O	      6.15786      4.27521      4.16642        -0.210982     -0.003512     -0.024988
O	      6.33117      2.07157      6.33433        -0.043099     -0.008169     -0.193751
O	      8.26384      4.14754      6.15096         0.015273     -0.113418      0.191935
O	      2.10830      4.35312      4.12177         0.146938     -0.059580     -0.109863
O	      4.07568      6.29936      4.09517         0.092248      0.016385     -0.036089
O	      4.16261      4.30203      6.19433        -0.032627     -0.140677     -0.287697
O	      6.12042      4.28312      8.36226         0.279734     -0.307827     -0.134058
O	      8.28734      6.46793      8.35147         0.242321     -0.235842     -0.038360
O	      2.13271      6.51055      6.13729        -0.148657      0.087298      0.126910
O	      4.04871      8.46143      6.18215        -0.156297      0.178774      0.159933
O	      4.10837      6.26295      8.41699        -0.034964      0.206854     -0.077249
O	      6.37584      8.48224      8.23193        -0.482683      0.087587      0.144658
O	      6.17969      6.35336     10.41253         0.137993      0.012782     -0.000434
O	      8.25831      8.49910     10.34415        -0.036110     -0.015561      0.172724
