# total energy = -228.62669221 eV
 
CRYSTAL
PRIMVEC
0.033753 6.356398 6.265766 
6.369091 0.061852 6.238147 
4.274855 4.247778 0.012179 
PRIMCOORD
36 1
Li	      2.12258      2.10846      0.06614        -0.026658      0.006308     -0.027611
Li	      2.10618      0.06069      2.07346        -0.028905      0.019060     -0.034035
Li	      6.41388      2.20776      4.15336         0.019360     -0.028466     -0.010512
Li	     10.64429      6.44637      8.35155         0.005052     -0.003209     -0.014205
Li	      8.50186      4.28957      8.29081        -0.019763     -0.008925     -0.004873
Li	      6.39305      4.17843      6.30456         0.014012     -0.038036      0.056038
Li	     10.57392      8.50811     10.41472        -0.012119      0.020541     -0.019746
Li	      2.27842      6.42494      4.13440         0.020441      0.009084     -0.023872
Li	      4.23817      6.38892      6.22917         0.010569     -0.014287      0.012649
Sc	      6.30938      6.33622      4.15404        -0.104091      0.017855      0.090341
Ti	      6.37255      0.20855      6.20932         0.008878      0.298302     -0.056839
Ti	      2.16457      4.34823      6.22283         0.061087      0.060264     -0.135230
Cr	      6.46329      6.32671      8.36992        -0.438510      0.843863      0.064215
Fe	      4.20413      2.16834      2.06175         0.090629     -0.090402     -0.021843
Fe	      8.51561     10.48615     10.45138         0.101754     -0.071419      0.049776
Cu	      4.31157      4.28682      4.13037        -0.008762      0.016598      0.093973
Cu	      8.57878      8.49588      8.40042         0.228280     -0.076101      0.045807
Ni	      4.28069      2.17146      6.26406        -0.020157     -0.016783      0.044985
O	      2.24948      2.12864      2.10008         0.044139     -0.019637      0.046105
O	      4.27164      4.18010      1.90816        -0.027822     -0.024343     -0.193833
O	      4.25614      2.25993      4.14842        -0.055403     -0.150564     -0.118719
O	      6.48540      4.27197      4.20910        -0.077378      0.070010     -0.038642
O	      6.37236      2.06871      6.27905         0.046936     -0.311023     -0.030725
O	      8.65866      4.31404      6.15925         0.105213     -0.007079      0.000026
O	      2.17620      4.20234      4.32189         0.111239     -0.001112      0.171542
O	      4.29693      6.24075      4.14885         0.087166      0.078733      0.037079
O	      4.14256      4.26591      6.44759        -0.218535      0.072025     -0.261409
O	      6.44123      6.49045      6.33602        -0.043743      0.145986     -0.325975
O	      6.41134      4.49231      8.32646        -0.442823     -1.268357      0.008361
O	      8.35842      6.44830      8.33077         0.785455      0.217425      0.042485
O	      2.05425      6.27100      6.25031        -0.095227     -0.239489     -0.006425
O	      4.42088      8.56101      6.29607         0.154797      0.021213      0.010359
O	      4.40990      6.47149      8.41668        -0.376417     -0.081557     -0.023225
O	      6.29100      8.37725      8.27364         0.191868      0.417040     -0.039223
O	      6.32453      6.40983     10.43040        -0.073304      0.000844      0.374146
O	      8.54377      8.56579     10.33730        -0.017258      0.135637      0.239057
