# total energy = -228.07466414 eV
 
CRYSTAL
PRIMVEC
0.010342 6.297359 6.279288 
6.316600 -0.005170 6.294750 
4.201936 4.199385 0.005692 
PRIMCOORD
36 1
Li	     10.45252      4.17257      6.30199         0.009488     -0.050799      0.046659
Li	      4.17057      2.14749      2.16201        -0.045337      0.061930     -0.028538
Li	      6.22316      2.09171      4.25277         0.007468      0.000648     -0.020951
Li	      2.15034      4.15304      2.11053         0.040690     -0.027442      0.046097
Li	      2.22082      2.14807      4.28077         0.033524      0.042949     -0.011818
Li	      4.18738      4.09618      4.27194        -0.024470     -0.006848      0.015098
Li	      4.23434      8.38450      4.24847         0.020478      0.006359      0.054520
Li	      6.30844      8.28289      6.25187        -0.008780      0.005209     -0.006508
Li	      4.28902      6.33724      6.20147        -0.027290      0.069838     -0.046306
Sc	      6.30752      4.12350      2.19909        -0.084227      0.017632     -0.193796
Ti	      4.26064      6.26054      2.14079         0.270047     -0.265567      0.196211
Ti	      2.05749      6.15348      4.29440        -0.010249     -0.604259      0.277382
Cr	      4.23572      4.17614      8.37251        -0.070595      0.070931      0.009094
Fe	      8.51837      8.47838     12.48740        -0.192624     -0.129087      0.134664
Fe	      6.27888      6.31471      8.33505         0.012085      0.012097      0.058477
Ni	      4.23227      0.05291      4.19919         0.077394     -0.058019     -0.059798
Ni	      6.29495      4.22481      6.21491         0.012082     -0.009596     -0.007147
Ni	      4.21247      2.10570      6.18479         0.082926     -0.093333      0.138819
O	      1.96739      2.08696      2.04856        -0.217507     -0.001591      0.086986
O	      4.23781      4.36365      2.09023         0.029441      0.244808      0.027622
O	      4.22597      2.05266      4.20743         0.022747      0.075364     -0.149225
O	      6.35152      4.20687      4.17137        -0.057583      0.003307     -0.030125
O	      6.35829      2.15146      6.39508        -0.019880     -0.063042      0.053891
O	      8.39665      4.14745      6.24797        -0.011272      0.205863      0.088228
O	      2.09373      4.32768      4.23681         0.006104      0.577737      0.005091
O	      4.04903      6.33902      4.04844        -0.084155     -0.024461     -0.140967
O	      4.26726      4.13008      6.40281        -0.045747      0.087665     -0.036943
O	      6.36599      6.26011      6.37995        -0.069552      0.041195     -0.110378
O	      6.25323      4.17743      8.36282        -0.034409     -0.033714      0.061932
O	      8.44676      6.34440      8.42976         0.011298      0.027755      0.029010
O	      2.09507      6.42704      6.19450        -0.044991     -0.119083     -0.203945
O	      4.01969      8.43482      6.32862         0.366127     -0.004994     -0.003274
O	      4.26801      6.19992      8.39398        -0.082338     -0.048676     -0.109159
O	      6.39962      8.34789      8.33010         0.073919      0.046756      0.001785
O	      6.43798      6.29158     10.34137         0.102879      0.010661      0.049970
O	      8.41455      8.36558     10.46488        -0.047690     -0.068193     -0.222657
