# total energy = -234.92512861 eV
 
CRYSTAL
PRIMVEC
-0.019124 6.331910 6.425389 
6.334310 0.014558 6.391662 
4.232121 4.208165 0.000411 
PRIMCOORD
36 1
Li	      2.24547      8.33745      6.31317         0.020812     -0.023112      0.020937
Li	      4.28961      8.30958      8.41895         0.028515     -0.022462      0.001488
Li	      4.29955      6.22809     10.59767         0.063364     -0.006646     -0.010098
Li	      6.34260      4.21832      6.44185        -0.019759      0.025804      0.020061
Li	     10.41498      8.46527     10.72889        -0.044241     -0.005746     -0.006657
Li	      8.40952      6.45352     10.75891         0.010168      0.008923      0.051530
Li	      6.21952      8.40827      6.47772         0.019675     -0.016455      0.002045
Li	      4.17144      6.51413      6.48066         0.034002     -0.095578     -0.028381
Li	      6.18136      6.33774      8.64038         0.002610     -0.021801      0.077241
Sc	      4.25414     10.38686      6.36947        -0.024029     -0.040786     -0.026992
Ti	      4.17255      4.27338      4.36258        -0.136296      0.098878      0.277004
Ti	      8.34335      6.27618      6.45751        -0.221037     -0.084910      0.046355
Cr	      6.35660      6.29662      4.27290        -0.026568      0.032433      0.018489
Fe	      2.24640      6.29225      8.45917        -0.179460      0.024292      0.059176
Fe	      6.48545      8.38021     10.65070        -0.111536      0.071351      0.121193
Fe	      6.36545      2.20669      8.47673        -0.027605     -0.043016      0.015588
Co	      8.37023      4.26301      8.53861         0.011074      0.016699      0.038889
Cu	      4.25842      4.30430      8.57744         0.028047     -0.010695     -0.028754
O	      2.04438      2.05478      2.25614         0.032663      0.007910     -0.018334
O	      4.19275      4.31956      2.17602         0.080597      0.013133     -0.011730
O	      4.17917      2.19523      4.36397        -0.004085      0.080436      0.048518
O	      6.20244      4.22944      4.18082        -0.029001      0.040953     -0.058541
O	      6.18450      2.12636      6.39810        -0.056707     -0.048458      0.009175
O	      8.44170      4.36902      6.46982         0.037463      0.248503      0.008135
O	      2.25156      4.11615      4.19083         0.107056     -0.035368     -0.000113
O	      4.30432      6.21295      4.20755         0.024777     -0.129210     -0.049506
O	      4.22872      4.13715      6.20774        -0.052338     -0.075623     -0.457477
O	      6.46084      6.31681      6.29131         0.216641      0.026220     -0.055679
O	      6.33503      4.15519      8.54307         0.019410      0.092199     -0.009818
O	      8.51745      6.47018      8.40075        -0.035445     -0.159716     -0.131674
O	      2.06260      6.32296      6.54196        -0.010684     -0.019104     -0.082281
O	      4.21483      8.44303      6.41846         0.035453      0.062891      0.027783
O	      4.16698      6.26700      8.55163         0.144994      0.105349      0.010563
O	      6.35758      8.50771      8.66436        -0.072235     -0.035571     -0.090563
O	      6.32130      6.43712     10.71536         0.014582     -0.069308      0.089654
O	      8.35174      8.46525     10.78115         0.119122     -0.012413      0.122773
