# total energy = -235.23679001 eV
 
CRYSTAL
PRIMVEC
0.030088 6.366369 6.232690 
6.363829 0.032008 6.230897 
4.263918 4.264454 -0.000033 
PRIMCOORD
36 1
Li	      6.32447      4.32457      2.10124        -0.004015      0.013054     -0.006842
Li	      4.32568      6.43630     10.34599         0.036091      0.027110     -0.015949
Li	      4.37374      6.34877      2.18402         0.014160     -0.007907     -0.017158
Li	      2.21856      4.12954      2.17673         0.036474     -0.024527     -0.007066
Li	      2.02551      2.20844      4.01769        -0.053549     -0.008490      0.033171
Li	      0.13061      4.19475      4.15151         0.037965     -0.000668     -0.016141
Li	      6.29868      8.51991      6.21958        -0.061347     -0.004829     -0.008450
Li	      4.23569      6.51857      6.15004         0.025743      0.036111     -0.017109
Li	      6.36370      6.40907      8.37978        -0.020651     -0.040283     -0.039270
Sc	      6.40489      4.28137      6.22584        -0.069892      0.150766      0.058322
Ti	      8.43062      6.36685      6.34214        -0.506120     -0.045067      0.151499
Ti	      4.25970      4.47553      8.34881         0.224524      0.585345      0.007144
Cr	      4.22110      4.27501      4.09301        -0.070076      0.103200     -0.054647
Fe	      2.27222      8.42048      6.34562         0.076941      0.034942     -0.118454
Fe	      6.38197      8.47577     10.30491        -0.028334     -0.007606      0.099532
Fe	      2.17490      6.28077      4.15971         0.015158     -0.041347     -0.030368
Co	      4.29452      4.23011      0.07224         0.026510      0.052560     -0.121603
Ni	      4.27516      8.47552      8.30362         0.065710     -0.119693     -0.022727
O	      2.16757      2.13591      2.00049        -0.156112      0.002604      0.070854
O	      4.26536      4.16744      2.12156        -0.007928      0.148668      0.079121
O	      4.32600      2.19245      4.22245         0.035638     -0.001007      0.204162
O	      6.26522      4.17233      4.17378        -0.020728     -0.037295      0.075449
O	      6.37753      2.16681      6.18405        -0.093274      0.058508      0.008301
O	      8.48865      4.39070      6.22747        -0.037126      0.069192      0.041226
O	      2.19811      4.33062      4.13645         0.114214     -0.038772      0.017378
O	      4.17874      6.27084      4.14246        -0.024102     -0.085721      0.010515
O	      4.27259      4.15188      6.26406         0.079144     -0.115024      0.068042
O	      6.56641      6.35777      6.19494         0.574287     -0.078647      0.088243
O	      6.16692      4.29083      8.28682        -0.313636      0.029298     -0.043945
O	      8.51787      6.50591      8.22019        -0.017012      0.042282     -0.266020
O	      2.15826      6.47403      6.16247        -0.023604     -0.092059     -0.006938
O	      4.22625      8.52567      6.24014        -0.057005     -0.040000     -0.108317
O	      4.27188      6.32546      8.30701         0.007669     -0.672058      0.011179
O	      6.50203      8.50396      8.33795         0.208296      0.019598     -0.014281
O	      6.48629      6.48563     10.41628         0.027760      0.082954     -0.013578
O	      8.46419      8.51398     10.32292        -0.041771      0.004807     -0.095278
