# total energy = -232.40679795 eV
 
CRYSTAL
PRIMVEC
-0.003798 6.490511 6.156668 
6.239874 0.002507 6.151298 
4.170869 4.334735 -0.009977 
PRIMCOORD
36 1
Li	      2.09708      8.53767      6.14840        -0.014832     -0.063508      0.024754
Li	      2.07037      6.46446      8.07787         0.025736      0.028457      0.053613
Li	      2.15916      4.31249      2.01857        -0.040123     -0.000561      0.070290
Li	      6.23494      6.53841      4.15881        -0.004681      0.041969     -0.001408
Li	      4.23723      4.28828      4.09400        -0.061757      0.104066      0.031043
Li	      2.13792      4.40150      6.26460         0.026121      0.009809     -0.093426
Li	      4.11080      6.38507      6.26812         0.013525     -0.022424     -0.087583
Li	      8.26283      8.67719      8.15478         0.013116     -0.087132     -0.034936
Li	      6.10374      6.65980      8.14134         0.056402     -0.008154     -0.040439
Sc	      2.08000      6.44274      4.14286         0.085953     -0.131219     -0.068695
Ti	      4.05716      2.15161      2.00178        -0.174489     -0.116418      0.008208
Ti	      0.03908      4.27832      4.08153         0.333003     -0.123163     -0.035512
Cr	      0.09760      2.07685      2.03620         0.006261     -0.007831      0.087419
Fe	      6.27949      2.32668      4.02410         0.114546     -0.068967      0.152340
Fe	      8.26639      6.56318      6.18412         0.004178      0.116301     -0.101729
Fe	      6.22677      4.43604      6.20150         0.017841     -0.057708      0.048118
Cu	      4.13172      0.04714      4.06309        -0.052083      0.008110     -0.018301
Ni	      4.16991     10.79221      6.17049         0.001695      0.023443     -0.013537
O	      2.14442      2.20682      2.06338         0.220272     -0.004810     -0.044148
O	      4.18366      4.34610      2.03797        -0.012731     -0.030023      0.104824
O	      4.25814      2.30690      4.05861        -0.014694      0.137645     -0.008512
O	      6.32631      4.26658      4.18505        -0.147422      0.133601     -0.057196
O	      6.23807      2.16502      6.13412         0.006658      0.056233     -0.061228
O	      8.31415      4.47297      6.03443        -0.048889     -0.063581      0.146938
O	      1.89174      4.34940      4.14277        -0.343383     -0.011994     -0.025701
O	      4.17377      6.61787      4.04098        -0.014257      0.064276      0.017865
O	      4.25990      4.23950      6.18487        -0.118721      0.081050     -0.006528
O	      6.31068      6.38323      6.19505        -0.081953      0.115268     -0.000027
O	      6.27391      4.14685      8.25879        -0.025252      0.009114      0.085049
O	      8.49695      6.42256      8.14429        -0.029471     -0.008381      0.063259
O	      2.04293      6.46344      6.11494         0.119444      0.008875      0.052147
O	      4.11434      8.69485      6.15524        -0.015808     -0.091912      0.049211
O	      4.11641      6.74410      8.24571         0.024427      0.114447     -0.089701
O	      6.11491      8.66759      8.27707        -0.039480      0.023001     -0.182123
O	      6.18157      6.32327     10.20605         0.113379     -0.055936     -0.064601
O	      8.31592      8.52803     10.20345         0.057470     -0.121944      0.040253
