# total energy = -231.10910471 eV
 
CRYSTAL
PRIMVEC
0.013250 6.327553 6.225572 
6.383237 0.009920 6.228876 
4.271771 4.236963 -0.009660 
PRIMCOORD
36 1
Li	      4.15963      2.14292      2.02988        -0.001902      0.029598      0.039804
Li	      6.49906      2.34590      8.22424         0.001557     -0.072606     -0.037715
Li	      8.25500      4.12245      8.30174         0.052216     -0.059639      0.032440
Li	      2.08613      2.15320      4.09855        -0.057049      0.024339      0.039634
Li	      8.47959      6.35967      6.35715        -0.004348      0.015198      0.060979
Li	      6.36237      4.31231      6.46985        -0.021360      0.029710     -0.244332
Li	      6.41699      4.21581     10.17578         0.007974      0.009188      0.086983
Li	      4.51516      4.21033      8.20773        -0.052628     -0.033291     -0.034812
Li	      6.43444      6.08528      8.18226         0.027903      0.022158      0.013480
Sc	      6.42087      8.46545     10.34505         0.041072      0.049543      0.008538
Ti	      4.28109      0.10296      4.10644         0.009832      0.209082     -0.024111
Ti	      8.61604      6.36206     10.18967         0.114169     -0.042595     -0.662804
Cr	      2.14695      0.07980      2.07142         0.027297     -0.039635      0.041122
Fe	      4.20637      4.22812      0.13113        -0.040669     -0.018296      0.040919
Fe	      4.18065      4.25743      4.14181         0.092890     -0.093220     -0.037923
Fe	      6.38694      8.32526      6.31568         0.068281      0.098022     -0.034089
Ni	      2.13708      2.12900      0.06634         0.035221      0.034943      0.007481
Ni	      4.31869      6.34324      6.26226         0.029397      0.014286      0.100478
O	      2.16216      2.04364      2.06318        -0.003868     -0.073632      0.210202
O	      4.39572      4.21154      2.14650         0.062240      0.006949      0.004632
O	      4.30284      2.01159      4.15031        -0.016740     -0.204301      0.018415
O	      6.49582      4.22767      4.08572         0.087841      0.090157      0.108289
O	      6.42175      1.96664      6.19549        -0.092870      0.010898     -0.026978
O	      8.61506      4.18468      6.06814        -0.060073      0.147327     -0.151212
O	      2.20232      4.37471      4.19640        -0.089926      0.127007      0.001340
O	      4.12853      6.27595      4.19908        -0.189295      0.064402     -0.176489
O	      4.19082      4.24635      6.09209         0.004654     -0.073497      0.074946
O	      6.33200      6.44421      6.19641         0.135814     -0.234744     -0.005323
O	      6.39729      4.22413      8.30439        -0.021275     -0.003289     -0.052111
O	      8.50850      6.36112      8.43237        -0.013525     -0.022778      0.456572
O	      2.10223      6.32852      6.25701        -0.056628     -0.140310     -0.061333
O	      4.33928      8.51362      6.22178        -0.014013      0.066985      0.007329
O	      4.20824      6.32887      8.41051        -0.038565      0.031703      0.259231
O	      6.43568      8.58298      8.27105         0.008690      0.109479      0.070505
O	      6.33499      6.36321     10.40322        -0.025878      0.033742      0.013040
O	      8.50144      8.40866     10.42779        -0.006438     -0.112884     -0.147126
