# total energy = -238.47090620 eV
 
CRYSTAL
PRIMVEC
0.005024 6.387036 6.258807 
6.416005 0.002052 6.261181 
4.271777 4.254313 0.006868 
PRIMCOORD
36 1
Li	      6.51648     10.50878      8.35961         0.018502     -0.016284      0.022993
Li	      6.54638      8.50043     10.29408         0.046444      0.010533      0.031456
Li	      4.21207      6.32298      2.18314        -0.000063      0.045485      0.021543
Li	      4.24588      4.35163      4.13583        -0.006671      0.026683      0.033344
Li	      8.64484      6.47198     10.35157         0.046772      0.010365     -0.010422
Li	      2.21238      4.28853      6.31116         0.050991     -0.002930     -0.044531
Li	      4.22146      6.35944      6.30396        -0.024429     -0.015021     -0.051346
Li	      8.37683      8.57032      8.43623        -0.022431      0.010409      0.042926
Li	      6.39059      6.52706      8.39112         0.055469     -0.043577     -0.003575
Sc	      4.29390      2.13254      6.26654        -0.021337      0.063391     -0.001928
Ti	      0.19034      6.36332      6.24099         0.283147     -0.079725     -0.169169
Ti	      6.28276      4.33737      6.30452        -0.248653      0.083358      0.151237
Cr	      8.53678      2.15300      6.25531         0.004504     -0.100127     -0.081718
Fe	      4.43241      8.42427      8.41561        -0.119164      0.176567     -0.108140
Fe	      2.12846      4.32169      2.23880         0.065749     -0.002026     -0.125214
Fe	      6.32751      6.35824      4.10201        -0.016616      0.041123      0.073574
Fe	      6.40188      4.20428     10.35044        -0.146672      0.050796      0.080682
Co	      4.26424      6.33976     10.30231         0.079621      0.104888     -0.067087
O	      2.19211      2.22395      2.07154         0.064354     -0.069037     -0.068349
O	      4.15747      4.23680      1.93289         0.082027     -0.038453     -0.021416
O	      4.16833      2.13322      4.15073        -0.023318      0.084309      0.041739
O	      6.44816      4.31782      4.32493         0.070914     -0.107531      0.051062
O	      6.45287      2.09693      6.23708        -0.048935      0.006458      0.039248
O	      8.50992      4.20049      6.28727        -0.014831      0.067503     -0.081161
O	      2.15192      4.15975      4.18126         0.080004     -0.010086      0.018922
O	      4.39030      6.41235      4.17154        -0.066170     -0.153838      0.078981
O	      4.42645      4.18678      6.29032         0.228851      0.038893      0.022640
O	      6.47223      6.23697      6.21309        -0.023397     -0.146873      0.076994
O	      6.51028      4.21713      8.19393         0.030453      0.034881     -0.273543
O	      8.53924      6.26163      8.31074         0.005417      0.089604     -0.030860
O	      2.03235      6.50131      6.27030        -0.291565     -0.052752      0.012520
O	      4.16073      8.66514      6.32575        -0.001760      0.101510      0.099536
O	      4.27023      6.47656      8.31482        -0.011912     -0.157676      0.146486
O	      6.32549      8.53313      8.32934         0.118440     -0.016855     -0.039472
O	      6.34700      6.32712     10.60844        -0.112123      0.066863      0.132283
O	      8.56437      8.50543     10.54035        -0.131611     -0.100831     -0.000234
