# total energy = -102.62787858 eV
 
CRYSTAL
PRIMVEC
4.000794 -0.000315 0.000054 
2.001192 4.487859 -6.454977 
2.000320 4.359365 2.068338 
PRIMCOORD
16 1
Li	      4.00133      0.24375     -0.20525         0.003080      0.022650     -0.012414
Li	      2.00077      2.39013     -0.20001         0.001097     -0.027781     -0.014078
Li	      4.00162      2.08875     -2.13583        -0.000347     -0.009818      0.012086
Li	      4.00151      6.42300     -2.02652         0.002089     -0.007271     -0.005292
Ti	      4.00149      4.34727     -4.25731         0.001002     -0.242059      0.104261
Ti	      6.00489      6.74018     -4.48769        -0.003057      0.138642     -0.360122
Ni	      4.00100      4.52521      0.01892         0.001313     -0.059108     -0.026025
Ni	      2.00125      4.15060     -2.06132         0.000302      0.093330     -0.079582
O	      4.00194      4.43141     -2.34147        -0.006988      0.019686     -0.222888
O	      6.00151      6.86055     -2.37561        -0.004226      0.254194      0.004445
O	      4.00035      2.25596      0.14373         0.006331     -0.060700      0.388758
O	      6.00146      4.39734     -0.10313        -0.001478      0.008164      0.172329
O	      2.00108      2.17476     -2.16826        -0.004998      0.010348     -0.011492
O	      6.00158      4.62961     -4.27361         0.004184      0.018947     -0.052764
O	      4.00095      6.43827     -4.37533         0.003040     -0.012215     -0.003695
O	      6.00216      8.65436     -4.28599        -0.001345     -0.147009      0.106473
