# total energy = -234.34690037 eV
 
CRYSTAL
PRIMVEC
0.021832 6.374643 6.218408 
6.279591 0.034144 6.206420 
4.216259 4.272029 -0.007180 
PRIMCOORD
36 1
Li	      6.29237      0.11738      6.18007         0.013209     -0.024444     -0.005428
Li	      8.40804      8.51366     12.38078         0.050275     -0.009231     -0.042418
Li	      4.17348      8.52940      8.22417         0.025133     -0.010173      0.021431
Li	      6.27401      2.11294      8.12125        -0.034122     -0.021806      0.010120
Li	      6.27774      6.35815      4.23829        -0.056857     -0.000302      0.105430
Li	      4.30930      2.13775      6.20774        -0.062447      0.038847      0.030386
Li	      6.32538      4.19065      6.17005         0.012799      0.021280     -0.014676
Li	      4.16975      8.50561      4.24981         0.019093      0.025261      0.014734
Li	      4.22041      6.50570      6.15651         0.023746     -0.000816      0.023243
Sc	      6.13802      8.45810      6.18495         0.031431     -0.117104      0.048470
Ti	      2.12183      4.04027      1.95101         0.008962     -0.277844     -0.120334
Ti	      4.36783      4.24627      8.20735        -0.041248     -0.073137     -0.084471
Cr	      2.06727      0.07505      2.02096         0.011144     -0.056800      0.057210
Fe	      4.23380      0.18764      4.25144        -0.046987     -0.041651     -0.006934
Fe	      4.26056      4.28824      4.19016         0.072457     -0.116084      0.064462
Fe	      2.18143      6.46152      4.22402        -0.119589      0.001433     -0.077477
Fe	      6.28692      6.34352      8.23019         0.030829      0.123432     -0.008891
Cu	      6.29388      2.17934      4.24600        -0.084412     -0.017151     -0.198706
O	      2.08941      2.20319      2.05672        -0.032765      0.263336     -0.071121
O	      4.14504      4.24992      2.14184        -0.041216      0.005885     -0.082646
O	      4.17402      2.13829      4.15164        -0.088250      0.172053     -0.029100
O	      6.30395      4.37203      4.03101         0.093744      0.133131     -0.045688
O	      6.31675      2.16574      6.11623         0.026633     -0.009476      0.249771
O	      8.40101      4.31387      6.29219         0.017974     -0.049134      0.265867
O	      2.16995      4.34018      4.04101        -0.044203     -0.015831     -0.048158
O	      4.12559      6.25090      4.18387         0.024889      0.038500     -0.012097
O	      4.20655      4.25134      6.29999         0.036023      0.007737      0.180390
O	      6.28620      6.44424      6.28995         0.007957      0.090032     -0.212323
O	      6.34378      4.21463      8.27177        -0.039740     -0.091208     -0.034824
O	      8.42062      6.54025      8.36653         0.101713      0.128044     -0.054187
O	      2.09308      6.35924      6.21447         0.004019      0.001761      0.080805
O	      4.22566      8.50292      6.22490        -0.094737      0.013680      0.016710
O	      4.10424      6.28849      8.39834        -0.053052     -0.069709      0.001457
O	      6.44885      8.68455      8.30547         0.023684      0.095961     -0.076421
O	      6.24841      6.36864     10.26768         0.140460     -0.201607      0.140511
O	      8.46694      8.53239     10.22173         0.063452      0.043136     -0.085094
