# total energy = -236.38889432 eV
 
CRYSTAL
PRIMVEC
0.007443 6.319615 6.271199 
6.386423 0.002196 6.276670 
4.247636 4.206622 0.011543 
PRIMCOORD
36 1
Li	      0.06871      6.32114      6.24812         0.085177      0.006983     -0.057729
Li	      2.15985      6.28976      8.31036         0.052871      0.021933     -0.010314
Li	      6.43830      8.37052     10.41313         0.037162     -0.032511      0.003924
Li	      8.56677      4.31312      8.37983         0.013734     -0.036134      0.007808
Li	      4.23608      4.24555      4.15191         0.010263     -0.004766      0.004920
Li	      8.50328      6.32499     10.40157        -0.010864      0.017214     -0.020568
Li	      4.17464      6.33609      6.33838        -0.011148      0.056146      0.073859
Li	      8.45908      8.34952      8.41903        -0.055885     -0.086716      0.044477
Li	      6.45897      6.36198      8.41947         0.047571      0.032750      0.020654
Sc	      6.30585      6.30416      4.12613        -0.041567     -0.021875     -0.051079
Ti	      4.37124      8.50555      8.32092         0.089895      0.059694     -0.032217
Ti	      6.34812      4.19919      6.38518        -0.031773      0.022744      0.038094
Cr	      8.51546      6.30674      6.32870        -0.012500     -0.060322     -0.019861
Fe	      2.08722      8.33812      6.29637         0.038549      0.014142     -0.061308
Fe	      4.31769      6.27832     10.36957        -0.065769      0.001785      0.080017
Fe	      6.37177      4.25221     10.38525         0.001155     -0.030383      0.070424
Fe	      2.19943      4.40959      6.27087         0.032375     -0.144284      0.001373
Ni	      4.16974      6.20443      2.12084         0.087669     -0.047577      0.000438
O	      2.19199      2.10107      2.06190         0.063426      0.024043      0.161148
O	      4.24876      4.08037      2.13805         0.009100     -0.170463     -0.053092
O	      4.23389      2.06106      4.14973         0.017213      0.032430      0.060112
O	      6.43184      4.22373      4.37660        -0.049428      0.000076      0.039845
O	      6.29559      2.19013      6.31127        -0.088598      0.101204     -0.116915
O	      8.35855      4.27392      6.23703        -0.041721      0.059228      0.049261
O	      2.03375      4.17695      4.29677         0.073506      0.017544     -0.096735
O	      4.27518      6.41297      4.13914        -0.031749     -0.076113      0.123850
O	      4.31651      4.14998      6.27696         0.039972     -0.032522      0.027146
O	      6.47510      6.22723      6.27883        -0.034645     -0.004519      0.026670
O	      6.39159      4.17618      8.31568        -0.049231      0.041095     -0.215159
O	      8.54478      6.29469      8.26493        -0.117234      0.026642      0.043550
O	      2.16870      6.26194      6.26557        -0.019108      0.057080     -0.014324
O	      4.33860      8.39583      6.35439         0.050283      0.049863      0.048089
O	      4.22678      6.49468      8.45294         0.023025      0.074937     -0.126829
O	      6.27944      8.43295      8.29080        -0.119717     -0.002349      0.071951
O	      6.29743      6.21756     10.47205         0.073143      0.083825      0.004010
O	      8.58487      8.48510     10.50896        -0.065155     -0.050828     -0.125488
