# total energy = -239.61774643 eV
 
CRYSTAL
PRIMVEC
-0.028915 6.383092 6.329558 
6.378556 -0.010477 6.311256 
4.242496 4.233325 0.002882 
PRIMCOORD
36 1
Li	      4.31219     10.52730      6.47176         0.016450     -0.010721     -0.051459
Li	      2.15404      8.44161      6.35743         0.009065     -0.020766     -0.016704
Li	      6.23558     10.53109      8.33842         0.027366     -0.056771     -0.040578
Li	      4.29576      8.58319      8.32393         0.027214     -0.036243     -0.054363
Li	      4.24777      6.32098     10.46241         0.023476     -0.015323      0.005736
Li	      4.22446      6.23331      2.06806        -0.016422     -0.018698     -0.067207
Li	      2.21785      4.25517      2.06030         0.037663      0.013678     -0.042258
Li	      6.22794      8.60748      6.41972        -0.035826     -0.018462      0.006231
Li	      8.41661      8.50053      8.49420        -0.057106      0.039585      0.042341
Sc	      4.12094      6.38605      6.43422        -0.086939      0.086568      0.176416
Ti	      6.45730      4.16747      6.49374         0.346638     -0.201511      0.084296
Ti	      2.16849      2.12121      3.97483        -0.004399     -0.001067     -0.239962
Cr	      8.45280      6.38647      6.39296         0.041110     -0.109190      0.014287
Fe	      6.41514      8.53529     10.50602         0.097119     -0.085608      0.099865
Fe	      4.21679      4.25138      4.06018         0.008037      0.017362      0.183564
Fe	     10.47377      8.54508     10.58536         0.071976      0.091467     -0.125673
Fe	      2.10985      6.34210      4.19228        -0.092780      0.024603     -0.024990
Fe	      6.30804      6.50391      8.48157         0.021621      0.122329      0.094966
O	      2.15877      2.08237      2.21023        -0.011975      0.024377      0.279851
O	      4.24845      4.23826      2.20374        -0.010451     -0.000506     -0.149756
O	      4.13945      2.20014      4.34129        -0.113947     -0.006596     -0.026581
O	      6.30724      4.37544      4.33359        -0.070013      0.192460      0.019954
O	      6.25031      2.24976      6.28982        -0.064668      0.231021      0.197212
O	      8.33116      4.34671      6.32363        -0.349267      0.017731      0.081763
O	      2.11298      4.09479      4.21773         0.031867     -0.193130     -0.104289
O	      4.37191      6.36963      4.22261         0.133966     -0.043700     -0.058060
O	      4.35571      4.21022      6.23992         0.067123     -0.002013     -0.026856
O	      6.39938      6.25610      6.36629         0.013784     -0.018253     -0.027742
O	      6.35212      4.26602      8.36925         0.033675     -0.000502     -0.155165
O	      8.38475      6.35534      8.39624         0.025539     -0.023620     -0.091999
O	      2.14093      6.33096      6.23979         0.062284      0.073686      0.147433
O	      4.21532      8.44521      6.21104        -0.003106     -0.060079      0.068950
O	      4.34538      6.38641      8.40988        -0.064933      0.001814     -0.061145
O	      6.35994      8.44564      8.47616        -0.030972      0.000029     -0.236614
O	      6.35055      6.29585     10.47946        -0.068364     -0.101884      0.004770
O	      8.54120      8.47201     10.51182        -0.014807      0.087935      0.093768
