# total energy = -227.35385345 eV
 
CRYSTAL
PRIMVEC
-0.009591 6.193883 6.316835 
6.203546 -0.012486 6.319835 
4.161714 4.157319 -0.034841 
PRIMCOORD
36 1
Li	      6.23651      4.22551      2.24279        -0.048764      0.009077      0.063856
Li	      8.16683      4.13501      4.29973         0.018178     -0.014548      0.019736
Li	      0.02118      1.97176      2.02360         0.055266     -0.023483     -0.034818
Li	      6.14107      6.01715      4.35971         0.027047     -0.014062      0.002116
Li	      4.30460      4.19660      4.27001         0.012454     -0.028602     -0.000376
Li	      4.12882      2.08929      6.18207        -0.046708      0.049670     -0.046627
Li	      6.16898      4.14958      6.12875        -0.061982      0.010852     -0.043644
Li	      4.16130      8.26472      4.25098        -0.065682      0.025321      0.005633
Li	      2.12330      4.00264      6.25221         0.037672     -0.011950      0.011307
Sc	      2.13229      6.22647      4.26602         0.048052      0.142612      0.137159
Ti	      4.21281      2.14434      2.23604        -0.165629      0.500712      0.363359
Ti	      8.15717      4.11064      8.44918         0.248884     -0.631427      0.187020
Mn	      6.21948      6.19608      8.33481        -0.141721      0.205471     -0.065584
Cr	      4.14062      4.15463      8.36836        -0.076124      0.011151     -0.039166
Co	      8.29246      2.10362      6.29625        -0.044983      0.083886     -0.026455
Cu	      6.20614      6.20117     12.62362         0.060971      0.002048      0.026673
Cu	      4.18267      6.18371      6.27129        -0.036916      0.015560     -0.059201
Ni	      6.21000      2.13874      4.22620         0.034046      0.048442      0.033232
O	      2.13426      2.14817      1.92832         0.093192      0.233350     -0.024861
O	      4.02473      4.03290      2.19722        -0.169633     -0.285615      0.006974
O	      4.11307      2.00511      4.05484        -0.050325      0.048907     -0.382727
O	      6.22707      4.09301      4.18881        -0.004294      0.218233     -0.055646
O	      6.35617      1.95572      6.26076         0.142601     -0.041108      0.165259
O	      8.37595      4.05382      6.40752        -0.029268     -0.089831      0.072387
O	      2.00837      4.16003      4.00439         0.002011     -0.008967     -0.359117
O	      4.15249      6.21840      4.32619        -0.086380      0.044526     -0.160252
O	      4.09645      4.16498      6.45117        -0.024191     -0.205262     -0.009706
O	      6.19366      6.21852      6.43288         0.217884     -0.015804     -0.185437
O	      6.18561      4.16968      8.37055         0.448358     -0.774819      0.066837
O	      8.25748      6.20971      8.37545         0.677693     -0.179858      0.138950
O	      2.02037      6.34703      6.32578        -0.097601      0.020401      0.049493
O	      4.04838      8.34777      6.38943        -0.082724      0.083260     -0.067593
O	      4.20631      6.19731      8.29123        -0.780963      0.125938      0.072499
O	      6.20687      8.23554      8.36129        -0.253293      0.741072      0.060144
O	      6.22567      6.26216     10.25588         0.054432     -0.165036      0.040109
O	      8.30120      8.29895     10.51334         0.088438     -0.130118      0.038467
