# total energy = -227.89376454 eV
 
CRYSTAL
PRIMVEC
-0.002481 6.429634 6.256794 
6.326602 0.052142 6.201570 
4.254555 4.286877 -0.002253 
PRIMCOORD
36 1
Li	      4.33660      6.54076     10.36840        -0.032596      0.017125      0.044694
Li	      2.10445      2.35129      4.16834        -0.053587      0.069014     -0.021773
Li	      4.06463      4.30798      4.19699        -0.039004      0.026263     -0.025706
Li	      4.09420      2.31634      6.17283         0.012686      0.016622     -0.010439
Li	      0.10950      4.28045      4.09539         0.027098     -0.057086     -0.068370
Li	      2.12976      6.31214      4.11416         0.033911     -0.045783     -0.093797
Li	      2.20932      4.18636      6.19565        -0.024177      0.026754     -0.025997
Li	      8.46157      8.56368      8.31759         0.061447     -0.056557      0.048813
Li	      6.31344      6.57049      8.34125        -0.017877      0.029725     -0.005677
Sc	      6.24475      4.45625      6.18540         0.095702      0.013997      0.094409
Ti	      2.21438      8.53477      6.15161        -0.096042      0.249829     -0.449009
Ti	      6.49453     10.65154      8.43163         0.312582     -0.047936      0.415147
Mn	      4.21233      6.38883      2.14658        -0.206231      0.181950      0.100892
Cr	      6.28655      2.12121      4.16597        -0.005634      0.028094      0.032517
Co	      4.19737      2.16906      2.16196         0.040369      0.041562      0.061092
Cu	      6.35036      6.44906     12.38072         0.041920     -0.026107      0.185994
Cu	      8.38156      4.41470      8.33920        -0.107692      0.138270     -0.098917
Cu	      4.27565      6.41281      6.13795        -0.149305      0.108319      0.078200
O	      6.32415      6.58869     10.46901         0.053433     -0.040948     -0.058451
O	      1.98257      1.98126      2.03239         0.141708     -0.152957     -0.066236
O	      4.33610      4.35415      1.93937         0.238290     -0.019795     -0.172145
O	      4.31493      2.17706      4.12872         0.031838     -0.007149      0.152208
O	      6.35125      4.19822      4.08484         0.032851      0.000406     -0.204280
O	      6.46605      2.27859      6.21399         0.062855     -0.039836     -0.052737
O	      8.47787      4.16997      6.40205        -0.034229     -0.146887     -0.104415
O	      2.08792      4.32759      3.95894         0.014062     -0.008802      0.308672
O	      4.25590      6.39070      3.97154         0.000867     -0.016730      0.058233
O	      4.23401      4.43551      6.22289        -0.090653      0.049764     -0.009907
O	      6.29375      6.46444      6.24903         0.014971      0.024837      0.011490
O	      6.35664      4.11470      8.28573        -0.181660     -0.182341     -0.100841
O	      8.66768      6.43358      8.22948         0.087316      0.078438     -0.059141
O	      2.14014      6.53973      6.35696         0.082144     -0.128446     -0.211785
O	      4.12785      8.44901      6.31812         0.017932     -0.060574     -0.137523
O	      4.09065      6.50328      8.40520        -0.361459     -0.082070      0.021079
O	      6.35158      8.71730      8.40205        -0.060789      0.081485     -0.059378
O	      8.36526      8.63143     10.52666         0.056953     -0.062450      0.423084
