# total energy = -227.65206453 eV
 
CRYSTAL
PRIMVEC
0.019655 6.268587 6.326635 
6.316269 -0.030778 6.376928 
4.187491 4.189064 0.003052 
PRIMCOORD
36 1
Li	      6.31744      6.26960     12.45195        -0.015702      0.008372      0.031365
Li	      4.44971      6.10363     10.65147        -0.009045     -0.014775      0.021547
Li	      6.46742      8.14736     10.64829        -0.018285      0.017993      0.033039
Li	      4.32211      2.04514      6.37917         0.027216     -0.003256      0.011959
Li	      6.35290      4.05654      6.40116         0.025032     -0.013479     -0.017639
Li	      6.15554      4.34669     10.52800         0.004736     -0.015402     -0.070840
Li	      4.12403      6.30771      6.45780         0.038169     -0.000013      0.012387
Li	      4.31953      4.13001      8.49853         0.045448     -0.046491      0.004859
Li	      6.22052      6.28109      8.64347        -0.067634      0.065383     -0.030236
Sc	      8.32020      4.24188      8.35831        -0.054410      0.079126     -0.043736
Ti	      6.29636      6.24190      4.43232        -0.018940     -0.030952      0.593502
Ti	      4.25814      4.16216      4.37562         0.105112     -0.003640      0.379514
Mn	      4.24531      8.29764      8.38927         0.050965     -0.039703     -0.042971
Cr	      6.32200      2.06642      8.39368         0.006875      0.015710     -0.018897
Co	      8.41190      8.32846     12.66690         0.041990      0.029765     -0.158975
Ni	      2.15186      6.23035      8.38983         0.016258     -0.017255      0.042413
Ni	      8.30410      6.35655     10.61775         0.176863     -0.106756     -0.042676
Ni	      2.05837      4.25068      6.33775        -0.043385     -0.051933     -0.004047
O	      6.37458      6.22562     10.53870        -0.182664     -0.014725      0.015331
O	      2.14734      2.08072      2.08424        -0.035549      0.058041      0.090968
O	      4.18678      4.14705      2.24199        -0.067291     -0.029995      0.016993
O	      4.08547      2.18748      4.10321        -0.072927      0.068095      0.000005
O	      6.18399      4.29990      4.21162        -0.170235      0.130390      0.087606
O	      6.44519      2.04264      6.45210        -0.047747     -0.025414      0.021868
O	      8.39828      4.02811      6.38183         0.018107     -0.034367     -0.036664
O	      2.19157      4.07840      4.22060         0.075772     -0.102093     -0.047819
O	      4.31378      6.15687      4.12454         0.135278     -0.104015     -0.006789
O	      4.15577      4.16207      6.19944         0.081234      0.003839     -0.377191
O	      6.31519      6.30662      6.21799        -0.016781     -0.076138     -0.633386
O	      6.32422      4.02781      8.47305         0.014881     -0.005005      0.009566
O	      8.53808      6.25075      8.47492         0.061013     -0.005903     -0.083798
O	      2.13866      6.34821      6.33329        -0.002705      0.117945     -0.006753
O	      4.15139      8.36599      6.51801        -0.109653      0.003943      0.093033
O	      4.17789      6.44628      8.47076         0.060296      0.083415      0.010452
O	      6.11616      8.40189      8.37614        -0.084217     -0.107337      0.090744
O	      8.43123      8.31515     10.77537         0.031926      0.166630      0.055264
