# total energy = -230.90363167 eV
 
CRYSTAL
PRIMVEC
0.020075 6.373532 6.271451 
6.183268 0.005552 6.286623 
4.111958 4.248537 0.014003 
PRIMCOORD
36 1
Li	      4.19012     10.56064      6.31343         0.005493     -0.011309      0.007385
Li	      2.19036      6.42823      8.33379        -0.027981     -0.008325     -0.040780
Li	      4.08923      8.26781      8.33520        -0.022183     -0.000165      0.006678
Li	      6.17680      6.33555      4.35318        -0.006811      0.038816     -0.020674
Li	      8.12925      6.51146      6.34143        -0.033086     -0.072512      0.022197
Li	      4.12136      8.47484      4.26678        -0.025529     -0.034286     -0.043460
Li	      4.17597      6.38989      6.54409        -0.027540     -0.022795      0.024413
Li	      4.19176      4.43828      8.27451        -0.010000      0.017727      0.007246
Li	      6.00680      6.37953      8.31333         0.026427      0.049521     -0.022039
Sc	      8.24152      4.22380      8.24696        -0.022164     -0.067339     -0.192613
Ti	      6.12397      8.49859     10.35005        -0.108248     -0.068646     -0.623082
Ti	      8.27426      6.41221     10.45342        -0.089880      0.097114      0.304524
Mn	      6.12297      8.45920      6.36510        -0.033431      0.029487      0.095190
Cr	      4.13912      4.28354      4.18177         0.049160     -0.010745     -0.043754
Co	      2.12625      8.43586      6.30002         0.197383     -0.083284      0.017014
Co	      6.20689      2.10421      8.31648         0.146714     -0.042826      0.051763
Cu	      6.11163      4.29972      6.32244        -0.022475      0.202209      0.069211
Ni	      4.15754      6.38588     10.43302         0.074962      0.009221     -0.014816
O	      1.97952      2.11451      1.97974        -0.063540      0.081014      0.000355
O	      4.14871      4.38800      2.16821        -0.057646      0.091173      0.058884
O	      4.20893      2.21281      4.23520         0.270926      0.096877     -0.012539
O	      6.14530      4.15051      4.33993        -0.106861     -0.127373     -0.173103
O	      6.38144      1.99157      6.33529        -0.036735      0.011987     -0.013704
O	      8.18709      4.21710      6.20364         0.044838      0.137396      0.207047
O	      2.10213      4.37285      4.12270         0.032944      0.038286      0.112496
O	      4.08265      6.32536      3.99661        -0.120183     -0.050504     -0.026865
O	      4.07921      4.28918      6.17637         0.061734     -0.014740     -0.029693
O	      6.15904      6.59023      6.32006        -0.017154     -0.152184     -0.003063
O	      6.16873      4.07903      8.27257         0.004949     -0.100799      0.172174
O	      8.35688      6.34138      8.46328         0.015799     -0.039791      0.078728
O	      2.10880      6.23252      6.11312         0.000625      0.079761     -0.328035
O	      4.05472      8.50737      6.29141        -0.185249      0.020860      0.002953
O	      4.11991      6.36210      8.50280        -0.004817     -0.009340     -0.168617
O	      6.21101      8.55469      8.52827        -0.048659     -0.068285      0.506841
O	      6.30034      6.50715     10.42918         0.227854      0.197956      0.000077
O	      8.22141      8.41645     10.59536        -0.089636     -0.214156      0.011661
