# total energy = -229.78566687 eV
 
CRYSTAL
PRIMVEC
0.026639 6.480723 6.090002 
6.236824 0.022966 6.093319 
4.173463 4.339500 -0.000311 
PRIMCOORD
36 1
Li	      4.29856     10.64175      6.10867         0.135362     -0.146091     -0.063714
Li	      2.23394      8.54556      6.10675         0.027572     -0.074963     -0.086735
Li	      2.07526      6.48825      8.01486         0.017996     -0.043418     -0.095631
Li	      4.26976      8.55747      8.01040         0.033805     -0.023166     -0.049253
Li	      4.07302      4.35714      4.13224         0.004498     -0.016078      0.072929
Li	      4.08427      2.35441      6.12706        -0.061119      0.146743      0.020828
Li	      6.13661      4.44501      6.16284        -0.038611      0.020994     -0.012910
Li	      6.27736      8.65924      6.14460         0.039814      0.057851      0.012258
Li	      4.12257      4.37573      8.05209         0.022947      0.047901     -0.010387
Sc	      6.23630      2.26058      4.05221         0.280271     -0.094740     -0.020578
Ti	      8.29988      4.40553      4.20634         0.278060     -0.398290      0.188770
Ti	      4.17440      6.36054      1.93572        -0.418796     -0.138041     -0.247773
Mn	      8.31455      4.33378      8.07719         0.077789      0.140467     -0.194859
Cr	      4.18910      6.43286      6.10534        -0.412630      0.096501      0.039430
Co	      2.12953      2.12713      4.04222        -0.507864     -0.043879      0.125549
Co	      6.28053      6.56217      8.11389         0.071912      0.070741      0.125291
Cu	      4.19930      8.64188      4.10371        -0.144012      0.124002      0.150998
Cu	      2.11702      6.47484      4.11296        -0.156414     -0.011448      0.183083
O	      1.89575      2.11388      2.03470         0.156460     -0.047915      0.594695
O	      4.05113      4.45882      1.97379         0.014404      0.190142      0.042625
O	      4.17627      2.06415      4.08730        -0.647164      0.191871     -0.110287
O	      6.38594      4.38483      3.99885        -0.003395      0.281856     -0.002321
O	      6.16995      2.27344      6.20432         0.105500      0.003366      0.363788
O	      8.35439      4.37547      6.07306        -0.025696      0.044455     -0.176291
O	      2.06107      4.08955      3.93667         0.144280     -0.717254      0.063475
O	      4.15773      6.39862      4.03130         1.303374     -0.172006     -0.260954
O	      4.18879      4.57784      6.08802         0.040076     -0.400103     -0.019379
O	      6.14820      6.49933      6.16606         0.400675     -0.015126     -0.622086
O	      6.37507      4.46931      8.18825         0.035347     -0.006973     -0.083581
O	      8.33764      6.57589      8.22095         0.074765     -0.077593     -0.231134
O	      2.24270      6.47644      6.03560        -0.113366      0.011936      0.263986
O	      4.20003      8.42181      6.02262         0.028045      0.201995      0.049507
O	      4.35346      6.51174      8.12046         0.057281      0.057501      0.157373
O	      6.27133      8.49514      8.13205        -0.014635     -0.017552      0.070774
O	      6.25369      6.63304     10.09667        -0.618840      0.329329     -0.219895
O	      8.36929      8.93875     10.17764        -0.187692      0.426983     -0.017590
