# total energy = -233.65470439 eV
 
CRYSTAL
PRIMVEC
0.015204 6.248281 6.233938 
6.469872 0.015184 6.234121 
4.325818 4.178534 -0.003051 
PRIMCOORD
36 1
Li	      0.08048      6.23547      6.24361         0.011705      0.019552      0.011092
Li	      2.05073      0.04937      1.97400        -0.051766     -0.030123      0.030259
Li	      4.50718      6.21238     10.34440         0.034085      0.012698     -0.016133
Li	      6.67591      8.22150     10.33064         0.018728      0.032597     -0.066126
Li	      8.67797      6.19748      6.19365         0.013303     -0.067149      0.010587
Li	     10.69781      8.42450     10.50621        -0.035321      0.028028     -0.029383
Li	      8.49425      6.38057     10.49373         0.001932     -0.013327     -0.029141
Li	      6.28752      8.56883      6.28491        -0.032582      0.061306      0.025189
Li	      4.18436      6.37648      6.27752        -0.062018      0.019011     -0.023288
Sc	      4.27091      4.19019      4.19382         0.075283      0.023621     -0.039570
Ti	      6.44566      6.34818      4.23626        -0.128429      0.013820     -0.100661
Ti	      6.54919      4.05779      6.16178         0.132016     -0.114005     -0.160110
Mn	      6.52973      6.30918      8.33809         0.042505      0.005791      0.074914
Cr	      4.34462      4.19317      8.32720        -0.044183      0.003020      0.142636
Co	      2.18575      4.17674      2.08472         0.036046     -0.014029      0.009410
Co	      8.69206      8.28480     12.34470         0.135060     -0.084339      0.090413
Co	     10.75326      6.25220      8.30716         0.072983     -0.105482      0.093908
Cu	      4.27681      8.31055      8.26753         0.027427      0.004965     -0.018808
O	      1.99493      2.12646      2.25913        -0.146998     -0.004024      0.034622
O	      4.27049      4.15893      2.11520        -0.087969      0.164501     -0.023125
O	      4.10624      2.09715      4.04765        -0.111791     -0.070854      0.087649
O	      6.40481      4.24947      4.25164         0.043033      0.003244      0.195216
O	      6.59185      2.13246      6.21575        -0.010774      0.158336      0.033763
O	      8.50997      4.02451      6.24827        -0.058122     -0.006764     -0.033201
O	      2.19640      4.08044      4.28953        -0.032302     -0.122860      0.001584
O	      4.47942      6.25177      4.17689         0.082443      0.035227      0.060353
O	      4.56632      4.09690      6.26531         0.076585      0.000036      0.143812
O	      6.60163      6.10962      6.19729        -0.066932      0.015727      0.016287
O	      6.45387      4.27062      8.22672        -0.013902      0.001330     -0.090587
O	      8.58831      6.29026      8.29127        -0.005674     -0.014407     -0.031112
O	      2.17200      6.41742      6.26640         0.006989      0.157688     -0.074035
O	      4.14510      8.37742      6.34112        -0.149203     -0.062679     -0.041385
O	      4.60911      6.23412      8.26893         0.047498     -0.036191     -0.114282
O	      6.67520      8.21098      8.23800         0.146536     -0.052420     -0.055574
O	      6.52266      6.26282     10.16822         0.004670      0.022347     -0.052065
O	      8.66679      8.37619     10.29337         0.029138      0.015809     -0.063107
