# total energy = -103.33747297 eV
 
CRYSTAL
PRIMVEC
2.048781 4.158097 2.059760 
4.158076 -2.089610 -2.099006 
0.002926 4.206743 -4.218997 
PRIMCOORD
16 1
Li	      2.07706      4.17628      1.92703         0.007031      0.000114      0.018353
Li	      2.05907      2.22485     -0.10602        -0.020281      0.013142     -0.010657
Li	      4.27847      2.10465     -2.12458        -0.008467     -0.019802      0.005481
Li	      2.04186      4.14577     -1.99688        -0.019160     -0.015913     -0.022523
Ti	      2.09049      2.12369     -4.11501         0.051313      0.129274      0.181495
Ti	      4.22290      4.22665     -4.35402         0.050398      0.037602     -0.229801
Ni	      4.05583      4.11375     -0.06216         0.081089     -0.044930     -0.017487
Ni	      6.20284      4.11395     -2.09589         0.026217      0.105469      0.069975
O	      2.02286      2.06651     -2.22243         0.132529      0.074091     -0.231792
O	      4.15786      4.27962     -2.20606        -0.109117      0.074578     -0.086823
O	      2.16712      4.04973     -4.26456         0.035083     -0.151309      0.112596
O	      4.08283      1.94809      0.07446         0.017749     -0.178594      0.020893
O	      4.12026     -0.00324     -2.01453         0.090682      0.002137      0.285809
O	      2.08836      4.20780     -0.03261        -0.163705     -0.132241      0.000731
O	      4.03566      2.19048     -4.18540        -0.113450      0.100364     -0.007247
O	      2.00970      6.27089     -2.12168        -0.057911      0.006019     -0.089004
