# total energy = -234.20483632 eV
 
CRYSTAL
PRIMVEC
0.050363 6.262364 6.229328 
6.394495 0.064977 6.216811 
4.302364 4.205649 0.004164 
PRIMCOORD
36 1
Li	      2.24454      8.30896      6.29120        -0.002834     -0.031702     -0.014058
Li	      2.34830      6.33035      8.33735        -0.014231      0.011165      0.014181
Li	      4.29470      8.28933      8.31946         0.023689      0.023464      0.004800
Li	     10.69597      6.35470      8.28204         0.029865     -0.016963     -0.006570
Li	      6.49509      6.20872      4.16939        -0.049777      0.006950      0.012036
Li	      4.38158      4.24985      4.13726         0.014338      0.033535     -0.009748
Li	      6.37888      4.21105      6.18523         0.009135     -0.011792      0.006991
Li	      4.28774      6.29280      6.36466         0.002359      0.000249     -0.006543
Li	      6.38123      6.36652      8.25322        -0.010309      0.052375     -0.019584
Sc	      0.09159      0.02692      0.07758         0.069062      0.037132      0.023546
Ti	      2.16783      4.07881      2.05911         0.115428     -0.433820     -0.110542
Ti	      4.33997      8.19034      4.13037        -0.043053     -0.732588     -0.112342
Mn	      6.33509      2.22219      4.07703        -0.013241      0.004452      0.130498
Cr	      4.21563      0.07582      4.11263         0.060143      0.117071      0.106239
Co	      8.53219      6.37283      6.21709         0.037853     -0.081417      0.063710
Co	      8.60454      6.35635     10.29824         0.051920     -0.034946      0.033131
Co	      6.51238      8.36008      6.29987         0.017413      0.051395     -0.016010
Ni	      4.29666      4.25212      8.25089         0.073712     -0.017089      0.086158
O	      2.11809      2.24608      1.99629         0.012852      0.353221     -0.029297
O	      4.08597      4.20900      2.08499        -0.152636     -0.043794     -0.038794
O	      4.20936      2.05653      4.26671        -0.008792      0.005874      0.025039
O	      6.53331      4.15404      4.15480         0.003422     -0.012222      0.023076
O	      6.26541      2.15793      6.08085        -0.064190      0.016709      0.004528
O	      8.56484      4.35693      6.26333        -0.012052      0.093918     -0.013567
O	      2.00198      4.23315      4.03275        -0.063567     -0.040864     -0.035556
O	      4.30875      6.34829      4.16966        -0.017964      0.751106     -0.036294
O	      4.14449      4.08952      6.23299        -0.080209     -0.025941     -0.124603
O	      6.61729      6.50845      6.22914         0.018902      0.019362      0.022567
O	      6.49150      4.25038      8.40191         0.061430     -0.011232      0.079481
O	      8.59481      6.32911      8.22818        -0.056707     -0.080616     -0.093045
O	      2.18359      6.14521      6.17282         0.004919     -0.056711      0.028685
O	      4.49068      8.38827      6.11627         0.081384      0.023942     -0.046417
O	      4.33678      6.28355      8.39143        -0.002156      0.112343     -0.008430
O	      6.52372      8.44946      8.38650        -0.135393     -0.005283      0.012045
O	      6.37327      6.38844     10.40143        -0.047492     -0.064364     -0.011615
O	      8.75891      8.48958     10.41806         0.086778     -0.012921      0.056306
