# total energy = -236.44265630 eV
 
CRYSTAL
PRIMVEC
0.028676 6.149983 6.291981 
6.445530 0.019097 6.301488 
4.313553 4.123145 -0.004321 
PRIMCOORD
36 1
Li	      2.20153      6.15223      8.38486        -0.016641      0.026914      0.028235
Li	      4.32895      6.16277     10.46031        -0.026221     -0.000095     -0.009941
Li	      8.57683      4.17983      8.40883        -0.017458      0.027997      0.021333
Li	      4.26950      4.13654      4.20081         0.017859     -0.021889     -0.034469
Li	      6.49138      4.16365      6.33346         0.010812      0.003167     -0.009895
Li	      0.10596      4.09770      4.11992        -0.019653      0.023960     -0.018305
Li	      6.50115      8.21377      6.29917         0.019961     -0.037182      0.015378
Li	      8.68252      8.21595      8.44651         0.024520     -0.012137      0.033027
Li	      6.48232      6.08803      8.37843         0.039610     -0.012015     -0.009908
Sc	      8.59265      2.17052      6.32637        -0.088337     -0.010534     -0.045805
Ti	      6.43456      2.20150      4.08544         0.107570      0.317790     -0.111392
Ti	      4.39169      5.99353      6.34518         0.135683     -0.274904     -0.042175
Mn	      6.48622      6.17498     12.58519        -0.022704      0.070682      0.112713
Cr	      4.31590      2.08372      2.12236        -0.180898      0.064301      0.063942
Co	      6.46780      6.16569      4.18507        -0.051410     -0.016726     -0.102812
Co	      8.52006      6.19742      6.34779         0.122665     -0.016149      0.091904
Co	     10.68743      6.33242      8.47430        -0.069908      0.010021      0.025597
Co	      2.16259      5.98526      4.15054         0.010687      0.054299      0.075887
O	      2.24566      2.06958      2.11874         0.102324     -0.031222      0.152449
O	      4.35710      4.15397      1.92602         0.058594      0.052712     -0.005390
O	      4.40120      2.08211      4.14962         0.203021      0.006338      0.039712
O	      6.47673      4.05447      4.18065        -0.020609     -0.249787     -0.021710
O	      6.45958      2.03935      6.26919         0.139862     -0.097239      0.014848
O	      8.62704      4.17795      6.25158        -0.119639      0.081339      0.053065
O	      2.16066      4.17224      4.19241        -0.001169     -0.105830      0.007106
O	      4.23817      6.17258      4.23008         0.071386     -0.008422      0.048427
O	      4.28862      4.16435      6.30794         0.022328      0.116104      0.092586
O	      6.32794      6.16124      6.22673        -0.204285      0.060979     -0.051747
O	      6.49172      3.98794      8.41164        -0.058907     -0.082262     -0.036801
O	      8.69840      6.19822      8.42695         0.003799     -0.039859     -0.170412
O	      2.32747      6.18385      6.24392         0.041966     -0.022801     -0.062396
O	      4.31221      8.22747      6.37895        -0.023465      0.112516     -0.005933
O	      4.33868      6.22500      8.24537         0.047638     -0.056746     -0.128205
O	      6.36293      8.19268      8.51733        -0.013133      0.021827      0.152354
O	      6.53221      6.21893     10.65462        -0.083148      0.017935     -0.132009
O	      8.43660      8.14328     10.51774        -0.162699      0.026920     -0.029259
