# total energy = -224.96037157 eV
 
CRYSTAL
PRIMVEC
0.021392 6.135742 6.323506 
6.351887 0.006437 6.338701 
4.242393 4.108204 -0.003610 
PRIMCOORD
36 1
Li	      0.06968      6.08780      6.32222        -0.041790     -0.005100     -0.038540
Li	      6.32654     10.15210      8.47289        -0.022971     -0.054195      0.049566
Li	      4.38255      8.30534      8.34708         0.047846      0.078782     -0.056701
Li	      6.41458      8.15247     10.46436         0.011183      0.030483     -0.002747
Li	      4.25620      4.09809      4.22006         0.014010      0.011643      0.023077
Li	      6.32055      4.12462      6.32408        -0.001836     -0.009291     -0.040167
Li	      0.12934      4.12568      4.20328         0.030107     -0.016627      0.033805
Li	      8.32379      6.09960     10.59792        -0.093775     -0.087501      0.006674
Li	      6.36185      8.21385      6.33313         0.019174     -0.015923     -0.008027
Sc	      4.25392      6.16717     10.46733        -0.102378      0.045605      0.197635
Ti	      2.19397      8.08529      6.23733         0.007883     -0.085286     -0.109348
Ti	      0.08893      1.99485      2.11291         0.260172     -0.089771     -0.133754
Mn	      4.22030      2.10562      6.33095        -0.007656     -0.075706     -0.087718
Cr	      4.27643      6.11525      6.33228        -0.010263     -0.128190     -0.172770
Cu	      2.12990      2.08002      4.24472         0.018763     -0.087351      0.096755
Ni	      2.12632      4.09837      2.15139         0.064522     -0.008287     -0.049890
Ni	      6.32976      6.15782      8.47564        -0.024791      0.199588      0.016924
Ni	      8.42577      8.19061      8.45849        -0.001046     -0.047836      0.120824
O	      2.12326      3.93940      4.16764         0.042746      0.225409      0.117788
O	      2.01365      2.08176      1.92530        -0.100442     -0.114118     -0.291255
O	      4.22031      4.24705      2.11418         0.097211      0.096972     -0.004281
O	      4.07315      2.10608      4.39214         0.049200      0.049455     -0.011010
O	      6.40175      4.29912      4.20738        -0.007220     -0.124049     -0.001834
O	      6.47319      2.05731      6.46172         0.123112      0.010585      0.103836
O	      8.52769      4.17286      6.29742        -0.016871      0.040877     -0.038434
O	      4.43529      6.14691      4.22242        -0.040709      0.027984      0.011053
O	      4.24060      4.05292      6.39350        -0.015829      0.082128     -0.055485
O	      6.26667      6.15347      6.56308        -0.006516     -0.163286     -0.434338
O	      6.34408      4.07590      8.47707        -0.003777     -0.411292      0.035741
O	      8.59805      6.15335      8.32673        -0.092077     -0.016514      0.084798
O	      2.22500      6.21213      6.26881         0.022965      0.067896     -0.038988
O	      4.10458      8.12473      6.33817        -0.090632      0.041520     -0.007918
O	      4.23332      6.11482      8.36921         0.131294      0.202448     -0.007017
O	      6.39895      8.07532      8.48407        -0.169540      0.556099     -0.024489
O	      6.34324      6.15365     10.39310        -0.101674     -0.166167      0.537426
O	      8.42576      8.21762     10.65526         0.011606     -0.060987      0.178813
