# total energy = -225.35645115 eV
 
CRYSTAL
PRIMVEC
0.009339 6.268171 6.461028 
6.070766 0.016253 6.453962 
4.085452 4.213117 -0.028441 
PRIMCOORD
36 1
Li	      2.08504      8.28532      6.42679        -0.020789     -0.051194     -0.053860
Li	      6.11943     10.36151      8.49417        -0.039860     -0.027842     -0.049647
Li	      6.03360      2.18441      4.25143         0.042089      0.026442     -0.003756
Li	      2.08839      4.17424      2.24061         0.037958      0.053260      0.082213
Li	      2.01945      2.21197      4.27648         0.021038      0.014266      0.026171
Li	      4.09459      4.11125      4.30713        -0.032165     -0.010528      0.030002
Li	      2.07390      6.18538      4.40941         0.001491     -0.027150      0.025933
Li	      1.99546      4.24388      6.36564        -0.004672     -0.014537     -0.073390
Li	      8.11839      8.40471      8.60579        -0.000171     -0.012939      0.006733
Sc	      6.16698      6.33453      8.65466         0.146566      0.023493     -0.071387
Ti	      7.97759      4.22830      4.29877        -0.490952     -0.041618     -0.075116
Ti	      0.15610      2.05825      2.16062        -0.094294     -0.116197      0.194902
Mn	      3.99232      6.23194      6.40818        -0.052951      0.083719     -0.114571
Cr	      4.04553      2.17746      6.43288        -0.111599      0.143125      0.035688
Cu	      0.10510      6.24322      6.43802        -0.049394      0.017197      0.077820
Cu	      4.02867      2.17695      2.12824        -0.075978      0.038811     -0.109023
Cu	      0.02411      4.17439      4.31490        -0.080268     -0.149576     -0.002819
Ni	      6.09718      4.20503      6.46749         0.037744      0.143434     -0.064120
O	      1.86429      4.17657      4.29540         0.256443     -0.000128     -0.079611
O	      2.00926      2.12256      2.11136        -0.005024      0.020229     -0.028726
O	      4.09540      4.29432      2.00699        -0.019004      0.222655      0.090134
O	      4.04337      2.02596      4.44746         0.015027     -0.230353     -0.012661
O	      6.14461      4.16739      4.39133         0.580488      0.061944     -0.091367
O	      6.02292      2.22986      6.57091         0.235904     -0.268934      0.035744
O	      8.22478      4.36759      6.30585        -0.057547     -0.071997     -0.016812
O	      4.05580      6.39297      4.07503         0.026235     -0.101083     -0.088836
O	      4.05437      4.25310      6.40046        -0.149737     -0.150998      0.036558
O	      6.05253      6.22549      6.53373         0.061058      0.126936      0.064288
O	      6.09291      4.14060      8.52173         0.067854     -0.044838      0.053386
O	      8.20187      6.34981      8.43766        -0.054706      0.037724     -0.042665
O	      2.07750      6.26231      6.43909         0.174865     -0.035510      0.005577
O	      4.07173      8.16145      6.36858         0.012492      0.116812      0.234894
O	      4.06102      6.35042      8.79478        -0.121678     -0.058240      0.145991
O	      5.98443      8.35399      8.67382         0.037311     -0.103414      0.045474
O	      6.08835      6.16356     10.82772        -0.063060      0.184589     -0.160957
O	      8.27258      8.55660     10.75556        -0.230713      0.202438     -0.052186
