# total energy = -225.08687988 eV
 
CRYSTAL
PRIMVEC
-0.014876 6.144642 6.416869 
6.210908 -0.010035 6.411853 
4.154332 4.106940 -0.020028 
PRIMCOORD
36 1
Li	      8.26855      8.19670     12.76355         0.024738     -0.065158     -0.028333
Li	      4.21080      8.16251      8.61944         0.050183      0.078916      0.076272
Li	      4.18560      0.04471      4.27145         0.011123      0.049629     -0.031490
Li	      6.23442      8.11435     10.62002         0.034286      0.002008     -0.046003
Li	      8.26837      6.14278      6.37582        -0.001654      0.044713     -0.077299
Li	      8.23146      6.14867     10.69595        -0.012640     -0.022650      0.059411
Li	      6.24526      8.17521      6.42490         0.029622     -0.019686      0.028850
Li	      4.17881      6.12265      6.46457         0.003760      0.057929      0.040309
Li	      8.24231      8.15171      8.53612        -0.025799      0.027860      0.006941
Sc	      2.21867      6.05462      8.53178        -0.045438      0.081461     -0.009015
Ti	      6.14350      4.14819      6.36193        -0.453346      0.120808     -0.179547
Ti	     10.20384      8.21823     10.73861        -0.507232      0.071388      0.170964
Mn	      6.20645      6.14913     12.81148         0.084594     -0.011762     -0.038048
Cr	     10.28093      6.15935      8.51369         0.075569     -0.086744      0.024839
Cu	      2.07164      4.09054      2.12932         0.000783      0.019600     -0.097628
Cu	      2.11015      2.05627      4.26939        -0.006891     -0.236786      0.148492
Cu	      4.05489      4.09263      4.32371         0.027613      0.044237      0.048057
Cu	      6.18078      6.24620      8.52071        -0.038222     -0.101184     -0.046605
O	      6.23471      6.03839      6.27755         0.021254     -0.088967      0.163452
O	      8.25671      6.03648      8.57501         0.135724      0.002659     -0.007197
O	      1.95902      2.08646      2.23101        -0.118889     -0.038352     -0.190605
O	      4.23620      4.18336      1.90603        -0.107278     -0.107342      0.010977
O	      4.04546      2.18658      4.24107         0.279296     -0.160317      0.014065
O	      6.22597      4.10821      4.34798         0.042176     -0.221542      0.050017
O	      6.21598      2.01982      6.50662        -0.013062      0.049194      0.026293
O	      8.33768      4.08233      6.45086         0.017665      0.018925      0.115998
O	      2.02816      4.02772      4.20720        -0.165054      0.407564     -0.125764
O	      4.17338      6.17443      4.16431        -0.155690      0.105431     -0.038224
O	      4.32122      4.09916      6.45409         0.298494     -0.020678      0.139647
O	      6.10215      4.08261      8.53379         0.076630     -0.104371      0.012726
O	      1.91709      6.14820      6.45589        -0.007279     -0.014980      0.020986
O	      4.13464      8.32208      6.24653         0.034136     -0.051424     -0.169570
O	      4.20137      6.20163      8.51730        -0.044886     -0.026855      0.055146
O	      6.24664      8.16706      8.56767         0.032479      0.164439     -0.017080
O	      6.19298      6.06759     10.87469        -0.007079     -0.021430     -0.103295
O	      8.40998      8.16398     10.67381         0.430315      0.053471     -0.007740
