# total energy = -231.43215084 eV
 
CRYSTAL
PRIMVEC
0.002628 6.451740 6.243410 
6.291072 0.023614 6.222425 
4.215704 4.308448 -0.005512 
PRIMCOORD
36 1
Li	     10.35975      4.35958      6.11342        -0.023929     -0.014247      0.011722
Li	      8.37712      8.75084     12.24688         0.029172      0.010791      0.081945
Li	      8.48594     10.60261     10.48230         0.012993      0.028161     -0.062069
Li	      6.46945      8.52960     10.49847        -0.077341     -0.055933     -0.012808
Li	      8.40427      4.44709      8.18181         0.077512      0.013291      0.033972
Li	      8.50615      6.37042      6.27814         0.017133     -0.057476     -0.076456
Li	     10.33702      8.69591     10.38603         0.023485      0.013483      0.033736
Li	      8.31473      6.65983     10.35675        -0.014752      0.004150      0.021575
Li	      2.08081      4.33829      6.22775        -0.064215      0.031724     -0.014296
Sc	      4.14004      6.46884      6.14989        -0.083418      0.106061     -0.030890
Ti	      6.26611     10.65535      8.28866        -0.062990     -0.109961     -0.243698
Ti	      2.19340      2.31631      4.20846         0.194601      0.330865      0.069268
Mn	      4.17220      8.59279      8.26774        -0.001669     -0.029315      0.091039
Cr	      6.26486      2.21335      8.29374         0.050733     -0.022456     -0.023696
Fe	      6.44335      4.21014      6.17838        -0.053089      0.023598      0.021164
Co	      6.46448      6.35701      8.45812         0.076194     -0.008957      0.011812
Cu	      4.20984      4.28363      4.23013        -0.141458     -0.025524      0.007014
Ni	      8.43174      8.57963      8.38086        -0.048094      0.033451     -0.120841
O	      2.06389      2.02256      2.19596         0.029586     -0.005832      0.059151
O	      4.29544      4.42351      2.13488         0.085508      0.074226     -0.064442
O	      4.06278      2.04870      3.96182        -0.075210     -0.118057      0.048458
O	      6.18949      4.41160      4.13378         0.135120      0.043705     -0.058387
O	      6.28362      2.24359      6.32226         0.004334     -0.081368     -0.039883
O	      8.32029      4.33457      6.20588         0.214373      0.011580      0.002388
O	      2.24166      4.16577      4.18741        -0.105266     -0.213400      0.001117
O	      4.37033      6.61560      4.09979         0.085294      0.086199     -0.010899
O	      4.28503      4.39139      6.24735        -0.005718     -0.052973      0.019835
O	      6.30078      6.42704      6.18097        -0.051688     -0.004512     -0.015881
O	      6.29345      4.30567      8.23055         0.058296      0.012063      0.058094
O	      8.43964      6.52013      8.30670        -0.056878     -0.091456     -0.009825
O	      2.09300      6.41543      6.41917         0.000704      0.024442      0.186385
O	      4.20694      8.56385      6.39876        -0.038236     -0.053804     -0.001864
O	      4.07217      6.44544      8.27889        -0.080174     -0.012996      0.031842
O	      6.23025      8.72524      8.35458        -0.113731      0.108472     -0.019821
O	      6.30414      6.44128     10.20480         0.015612     -0.008925     -0.099289
O	      8.39717      8.61290     10.34057        -0.012795      0.010930      0.114526
