# total energy = -232.44572248 eV
 
CRYSTAL
PRIMVEC
0.018199 6.314588 6.323965 
6.310845 0.051079 6.291143 
4.239222 4.219748 0.002010 
PRIMCOORD
36 1
Li	      4.25299      4.25183      0.06454         0.008788      0.009031     -0.008523
Li	      6.21815      4.20755      2.11624         0.021519      0.026729      0.013850
Li	      4.33365      2.30575      2.15985         0.098509      0.050421     -0.018212
Li	      6.21994      2.19366      4.10406        -0.008795      0.017627     -0.012010
Li	      2.19590      4.20802      2.11504        -0.001025      0.001414     -0.059675
Li	      2.18019      2.21122      4.11373         0.034352     -0.037289     -0.019022
Li	      4.20474      4.06169      4.12913        -0.024343      0.029650      0.031402
Li	      4.24181      2.13810      6.22026        -0.006818      0.000420     -0.068070
Li	      6.42690      6.43331      8.39733         0.007422     -0.001560      0.017310
Sc	      4.25075      0.17916      4.11426        -0.094096      0.169369      0.062098
Ti	      6.36598      4.23742      6.19405         0.215857     -0.095450     -0.574638
Ti	      4.21233      6.41380      6.39967        -0.158435      0.149998      0.106278
Mn	      0.08297      4.23735      4.23157         0.019933     -0.018838      0.025421
Cr	      8.43146      8.41273      8.39115        -0.118013     -0.087617      0.075027
Fe	      4.25991      6.23008      2.08811        -0.069305      0.004288      0.030474
Co	      6.34853      8.40027      6.36503        -0.019527     -0.004529      0.031215
Ni	      2.06725      2.10253      0.05373         0.015410     -0.034458     -0.033633
Ni	      2.12312      6.29263      4.22754        -0.027490      0.009916      0.029882
O	      1.86766      2.09247      2.08203         0.098945      0.029137      0.102626
O	      4.20573      4.41225      2.11647        -0.018067     -0.150973      0.014176
O	      4.21924      2.12245      4.12162         0.013839     -0.096378     -0.006666
O	      6.37207      4.21772      4.32093        -0.013346      0.020272      0.477522
O	      6.32122      2.24650      6.30633        -0.106995      0.170249     -0.025186
O	      8.30211      4.24517      6.24833        -0.248817      0.087963      0.024954
O	      2.00934      4.24586      4.37015        -0.017244     -0.109976     -0.028008
O	      4.23650      6.47217      4.34042         0.089535      0.022324      0.071692
O	      4.29765      4.31228      6.36203         0.119260      0.070729     -0.058913
O	      6.21346      6.22817      6.36863        -0.066289     -0.162858     -0.008776
O	      6.25256      4.07014      8.31873         0.027178      0.093141     -0.018471
O	      8.61323      6.40321      8.44785        -0.143775      0.008174     -0.075746
O	      2.24256      6.31132      6.28765         0.237034      0.013197      0.154753
O	      4.17105      8.32977      6.46936         0.054767     -0.201094     -0.006530
O	      4.20377      6.22433      8.34634         0.082834     -0.031587     -0.276382
O	      6.46769      8.41314      8.31632         0.021534     -0.011606      0.105292
O	      6.35098      6.22203     10.50525        -0.025657      0.023962     -0.020284
O	      8.59787      8.46426     10.45007         0.001318      0.036205     -0.055225
