# total energy = -234.43413492 eV
 
CRYSTAL
PRIMVEC
0.007188 6.319389 6.247774 
6.432039 0.018008 6.235770 
4.298994 4.215373 0.001712 
PRIMCOORD
36 1
Li	      6.34348      4.28341      2.10903        -0.020824      0.002863     -0.003360
Li	     10.67197      6.41038      8.43035        -0.079718      0.078224      0.021835
Li	      2.10173      4.21234      2.23927        -0.041890     -0.002570     -0.043537
Li	      2.12185      2.22550      4.02137        -0.001006      0.033959     -0.019098
Li	      4.16310      4.25407      3.99292        -0.061565      0.018854     -0.079459
Li	      6.55597      4.20240     10.18800         0.066130     -0.012264     -0.006767
Li	      8.62299      6.22840     10.22320         0.019471     -0.027747     -0.041027
Li	      4.49239      4.10843      8.37860         0.130209     -0.040497      0.062749
Li	      6.54424      6.21295      8.37841         0.012922     -0.025627      0.039155
Sc	      2.18192      4.21297      6.14817         0.058802      0.051765      0.049821
Ti	      4.28118      6.32576     10.26736         0.008146     -0.071190     -0.185709
Ti	      4.27134      6.36720      6.05069        -0.082988     -0.004022     -0.604926
Mn	      6.43310      8.45124     10.36945        -0.010957      0.005867     -0.027573
Cr	      6.42021      4.23401      6.33228         0.025110      0.076088     -0.008028
Fe	      8.60800      6.28130      6.40177        -0.146845      0.041411     -0.118801
Co	      4.24854      2.17021      2.12632         0.070077      0.059128      0.070217
Co	      4.30699      4.21067      0.06034         0.125918      0.054100     -0.094725
Cu	      2.19562      2.14200      0.05806         0.030313     -0.005114     -0.000273
O	      2.37577      2.11238      1.97845         0.082357     -0.043272      0.000796
O	      4.31290      4.07662      1.98443        -0.035818     -0.146550      0.156443
O	      4.19633      1.97511      4.33189        -0.058877     -0.042626     -0.045859
O	      6.55764      4.09255      4.21909         0.010232     -0.009305      0.021829
O	      6.31847      2.19562      6.16548        -0.080819     -0.076731     -0.000765
O	      8.49649      4.26253      6.19674        -0.186427      0.002923      0.017258
O	      2.16434      4.22598      4.21791        -0.006495     -0.026616     -0.028758
O	      4.32201      6.30045      4.25427         0.005263      0.016077      0.462103
O	      4.33847      4.30847      6.28058         0.019431     -0.003309      0.043927
O	      6.34302      6.28088      6.27263         0.023074     -0.032504      0.027268
O	      6.44181      4.20215      8.23905         0.044739     -0.002478      0.040938
O	      8.56557      6.36614      8.23241        -0.020171      0.022249      0.235520
O	      2.30699      6.31082      6.25128         0.173478     -0.058443     -0.016385
O	      4.41600      8.29380      6.21254         0.149189     -0.000404     -0.011868
O	      4.28579      6.41703      8.40334        -0.032612      0.053708      0.218483
O	      6.20847      8.44327      8.43355        -0.094021      0.013367      0.015833
O	      6.29938      6.49380     10.50352        -0.083188      0.006557     -0.074262
O	      8.61724      8.63197     10.53319        -0.010641      0.094128     -0.072995
