# total energy = -235.68807068 eV
 
CRYSTAL
PRIMVEC
0.030380 6.211880 6.403397 
6.340320 -0.006805 6.440573 
4.215150 4.154352 0.007042 
PRIMCOORD
36 1
Li	      2.29027      8.22065      6.31282         0.066797     -0.020620     -0.014263
Li	      4.30032      8.25979      8.40359         0.004707     -0.017369     -0.109696
Li	      4.19769      6.22512      2.29640        -0.016284      0.056964      0.132192
Li	      6.22105      6.28966      4.30143        -0.064057      0.057104      0.007352
Li	      4.23102      8.14555      4.45693         0.080092     -0.098321      0.002562
Li	      2.19687      6.28369      4.29697        -0.003251     -0.004969     -0.008690
Li	      6.19387      8.28095      6.30568        -0.065814      0.018310     -0.199181
Li	      4.21404      6.40649      6.31659        -0.019205      0.015354     -0.025194
Li	      8.43884      8.22504      8.66395         0.024839     -0.018076      0.082126
Sc	      2.17307      4.08136      2.21263        -0.055969     -0.026567      0.003798
Ti	      2.24544      6.29247      8.40520         0.293733      0.177389     -0.518413
Ti	      6.28276      4.19081      6.52046        -0.055143      0.228032      0.361395
Mn	      6.39623      8.27693     10.68351         0.066291     -0.055335     -0.032531
Cr	      4.23935      2.06696      6.42746        -0.053450     -0.027280      0.042948
Fe	      4.16489      4.30185      4.29033        -0.043852     -0.034112      0.117051
Co	      4.27470      6.16257     10.64112        -0.004529      0.091951      0.240687
Co	      4.31487     10.24621      6.36541        -0.168219     -0.109380      0.076792
Ni	      6.32740      6.27476      8.56769        -0.066212     -0.059207     -0.035719
O	      2.10534      1.97030      2.17309         0.033328     -0.239075      0.008670
O	      4.29390      4.15259      2.21929         0.040794     -0.007043     -0.097654
O	      4.36988      2.09566      4.41253         0.168284      0.028561      0.017032
O	      6.29293      4.05532      4.35200         0.050721     -0.111431      0.004031
O	      6.27618      2.11479      6.29345        -0.076602      0.015438     -0.146466
O	      8.34451      4.19143      6.42880        -0.143409      0.013587      0.062924
O	      2.22252      4.11736      4.22493        -0.071530      0.036375     -0.072762
O	      4.22853      6.16993      4.30204        -0.030234      0.017437      0.018513
O	      4.36773      4.08127      6.36799         0.186977     -0.042543     -0.002205
O	      6.41734      6.11675      6.43926         0.034424     -0.251922     -0.021587
O	      6.36341      4.12336      8.40496         0.030219     -0.033662     -0.390039
O	      8.39830      6.16791      8.42953         0.090086     -0.047418     -0.067450
O	      2.14833      6.18329      6.58273         0.130874      0.008471      0.482328
O	      4.25037      8.32999      6.38790        -0.003826      0.200137     -0.015568
O	      4.16399      6.22182      8.58512        -0.257884      0.003897     -0.063737
O	      6.34538      8.36875      8.76828         0.022609      0.098534      0.135294
O	      6.35534      6.36353     10.65239         0.035405      0.159811      0.107656
O	      8.29156      8.30238     10.72484        -0.160711     -0.023022     -0.082194
