# total energy = -237.37273132 eV
 
CRYSTAL
PRIMVEC
0.054074 6.092580 6.466971 
6.361102 0.006221 6.515902 
4.233345 4.087104 0.011574 
PRIMCOORD
36 1
Li	      6.33404      0.10689      6.49801        -0.024373      0.025749     -0.042635
Li	      8.35084      2.00882      6.47890        -0.041452     -0.052345     -0.009996
Li	      2.04287      0.04106      2.11494        -0.032393      0.015549     -0.034720
Li	      8.53837      4.08312      4.45946        -0.014331     -0.030278      0.085194
Li	      6.41129      1.97574      8.55791         0.008178     -0.032881     -0.035958
Li	      4.33800      1.96024      6.48535         0.025849      0.028893     -0.007093
Li	      8.47693      6.12310     10.86304         0.046765     -0.052421      0.037006
Li	      4.25852      6.14474      6.47122        -0.016967     -0.021719     -0.035923
Li	      6.41383      6.08253      8.71847         0.014802      0.019909      0.043976
Sc	      8.53813      8.13932      8.70574        -0.009771     -0.059699     -0.101936
Ti	      4.22953      8.05501      8.63198        -0.040303     -0.068056     -0.173532
Ti	      2.18182      4.17317      6.50651         0.035566      0.513769      0.019952
Mn	     10.58242      8.20527     10.87058         0.072561     -0.193415      0.047019
Cr	      6.39908      4.05298      6.49489        -0.058199     -0.171568      0.037959
Fe	      6.35684      6.06017      4.37472        -0.117586      0.149918     -0.055971
Co	      8.50899      4.21729      8.52891         0.045865      0.117498     -0.108475
Co	      4.23039      4.15286      4.30387        -0.103366     -0.235687     -0.131496
Co	      6.45177      8.03899     10.90720        -0.045334      0.036609     -0.346009
O	      2.24357      2.12027      2.25127         0.207525      0.024307      0.063225
O	      4.18496      4.01715      2.24058        -0.024851     -0.022120      0.370672
O	      4.22675      2.08771      4.16829         0.188618      0.274493      0.054241
O	      6.36880      4.08538      4.45176         0.012260     -0.232995     -0.012997
O	      6.35490      2.09226      6.46213         0.023707      0.068871      0.272603
O	      8.38244      4.05251      6.61130         0.033712     -0.008507     -0.029133
O	      2.03467      4.03809      4.44633         0.011005      0.058209      0.002853
O	      4.35617      6.19019      4.31261         0.109006     -0.188730      0.036091
O	      4.21686      4.07006      6.50141         0.000104      0.057129     -0.098932
O	      6.42649      6.13393      6.36051        -0.008087      0.044754      0.055630
O	      6.38380      4.07817      8.53574        -0.057931      0.003419      0.027006
O	      8.50238      6.04052      8.71925        -0.034812     -0.083459     -0.021545
O	      2.19557      5.98728      6.47306        -0.013030     -0.452878      0.032795
O	      4.43684      8.14564      6.66545         0.043118      0.021856      0.092074
O	      4.25431      6.17543      8.64557         0.008356      0.198042      0.050668
O	      6.38032      8.12811      8.54161        -0.033120      0.003418     -0.160458
O	      6.37861      6.03072     10.85085         0.025327      0.215788     -0.007799
O	      8.61486      8.13412     10.76559        -0.236417      0.028581      0.085647
