# total energy = -230.56567351 eV
 
CRYSTAL
PRIMVEC
0.048769 6.265871 6.241387 
6.311462 0.019887 6.270206 
4.225752 4.214664 -0.004684 
PRIMCOORD
36 1
Li	      6.35123      0.21557      6.21124         0.011886     -0.075734     -0.047437
Li	      4.26668      8.38666      8.28176        -0.014902     -0.013525      0.055144
Li	      6.47584      8.29497     10.51394        -0.010853      0.019788     -0.122628
Li	      6.31485      2.12752      8.15243         0.011966      0.019681      0.099232
Li	      4.40602      2.24056      6.24451         0.013617      0.038398     -0.007687
Li	      6.28131      4.04708      6.31893         0.010531      0.106352     -0.030107
Li	      8.36144      6.42330     10.42678        -0.011853      0.001789     -0.036378
Li	      6.39974      8.38708      6.33848         0.017852     -0.026716     -0.040955
Li	      8.36809      8.30799      8.32191        -0.009300     -0.013491     -0.026856
Sc	     10.52481      8.43289     10.43435         0.029097      0.030800     -0.073367
Ti	      8.48071      4.30739      8.16653        -0.060665      0.134179     -0.009942
Ti	      4.28948      6.21485      6.38085         0.212710     -0.251852      0.047519
Mn	      2.14369      2.09990      4.18006        -0.081971      0.042412      0.341936
Cr	      4.20271      0.03302      4.18642         0.114753      0.074645     -0.025355
Fe	      6.21437     10.32040      8.29801         0.073312      0.187101      0.104019
Cu	      8.33948      2.08709      6.25740         0.099201      0.044621      0.053578
Ni	      4.22116      4.17811      4.20409         0.011113     -0.074170      0.020907
Ni	      6.41600      6.38114      8.32708        -0.064170      0.042425     -0.092578
O	      6.41713      2.12833      6.23081        -0.049856      0.019951     -0.012259
O	      2.10054      2.11621      2.30713        -0.012058     -0.017335     -0.661903
O	      4.17473      4.18554      2.13146        -0.169123      0.026285     -0.153165
O	      4.02472      2.06793      4.23973         0.299403     -0.231458      0.028619
O	      6.37061      4.37995      4.09366         0.145815     -0.302629      0.054367
O	      8.47788      4.16764      6.26286         0.001838      0.047107      0.131225
O	      2.15399      4.03444      4.08293        -0.128820      0.355177     -0.020070
O	      4.38636      6.27112      4.28770        -0.280644      0.100198      0.062577
O	      4.23173      4.31627      6.23154         0.019411      0.253135      0.200833
O	      6.23326      6.34342      6.18318        -0.291133     -0.012579      0.349593
O	      6.54431      4.25516      8.34184         0.201187     -0.094949     -0.050975
O	      8.46498      6.17616      8.34640         0.111845     -0.292028     -0.049828
O	      2.23383      6.28797      6.34208         0.038109     -0.024788     -0.088411
O	      4.14053      8.21913      6.22618         0.006269     -0.064504      0.059293
O	      4.25493      6.29206      8.34328        -0.141607      0.002323     -0.185205
O	      6.32305      8.44268      8.35476        -0.004861     -0.066295     -0.000378
O	      6.26812      6.28043     10.39313        -0.023658      0.027919      0.100605
O	      8.51092      8.51002     10.29391        -0.074439     -0.012233      0.026036
