# total energy = -230.10104300 eV
 
CRYSTAL
PRIMVEC
-0.039305 6.278559 6.476718 
6.109715 -0.043305 6.479784 
4.074626 4.189456 -0.029975 
PRIMCOORD
36 1
Li	      6.08439      6.26914     12.77865         0.010182      0.026343     -0.036181
Li	      6.09663     10.40888      8.65381         0.020134     -0.007404     -0.015264
Li	      8.08888     10.35882     10.81537        -0.043699      0.042885      0.024173
Li	      6.13019      8.28037     10.74714        -0.062955     -0.021663     -0.020687
Li	      6.14488      4.18785      6.42519        -0.050197      0.032874     -0.019114
Li	      6.07239      4.24683     10.78082         0.038142     -0.021189      0.018760
Li	      8.02630      6.33433     10.80955         0.000916     -0.009697      0.012458
Li	      6.06194      8.33107      6.42491         0.022825     -0.083738     -0.013064
Li	      8.04543      8.35546      8.89152        -0.018713      0.001375      0.058404
Sc	      6.06410      2.17463      8.61210        -0.125568     -0.011813      0.075807
Ti	      4.12531      4.12916      4.30415         0.068887     -0.033150      0.214993
Ti	      3.96434      6.17951      6.52007        -0.051347     -0.202257      0.017583
Mn	      4.03822      8.37043      8.54461         0.079365      0.005523      0.152055
Cr	      6.08490      6.22343      8.74636         0.092182      0.088937     -0.213413
Fe	      8.05325      8.43796     12.76990         0.029176     -0.024134      0.156217
Cu	      2.05997      2.07713      4.34795         0.025864     -0.038030      0.085974
Cu	      8.12331      6.15650      6.45968        -0.034025      0.193045     -0.032474
Ni	      8.15332      4.19693      8.62002        -0.016329      0.068022      0.036429
O	      2.08696      2.16608      1.94752        -0.010124     -0.083464     -0.223056
O	      4.09956      4.30556      2.30349         0.091665      0.001213      0.044556
O	      4.03563      2.15717      4.05750         0.143516      0.062672     -0.126940
O	      6.02764      4.24479      4.27867        -0.097463     -0.047466     -0.056653
O	      6.04599      2.04254      6.54390         0.290693      0.053160     -0.091694
O	      8.18717      4.15943      6.49529        -0.016101     -0.215772     -0.080414
O	      2.12419      4.07735      4.27142         0.052800      0.034675     -0.031106
O	      4.13680      6.20952      4.41381        -0.176256     -0.102280      0.000355
O	      4.04817      4.21421      6.28266        -0.001173      0.220560     -0.197854
O	      6.12309      6.21460      6.69206        -0.254036     -0.005372      0.218552
O	      6.10612      4.24232      8.65977        -0.086158      0.047368      0.073372
O	      8.08667      6.28138      8.75690        -0.048522      0.020069      0.094662
O	      2.11800      6.29366      6.45529         0.199261      0.038136      0.021309
O	      4.04046      8.23514      6.57917        -0.063512     -0.028930     -0.184887
O	      4.07542      6.14332      8.45570         0.032921      0.005491     -0.065092
O	      5.96906      8.15801      8.60962         0.014811     -0.065378      0.034441
O	      6.02871      6.22862     10.56320        -0.015254      0.017710      0.034455
O	      8.10183      8.35314     10.91427        -0.041909      0.041680      0.033337
