# total energy = -229.81225591 eV
 
CRYSTAL
PRIMVEC
0.016461 6.287769 6.326733 
6.279056 0.015451 6.327719 
4.186700 4.193373 0.009562 
PRIMCOORD
36 1
Li	      8.40853      8.35414     12.53853        -0.004306      0.101606     -0.040496
Li	      2.09332      6.30339      8.29071        -0.012046     -0.021699      0.100016
Li	      8.46713     10.39193     10.69592        -0.027361      0.041004      0.069507
Li	      8.40470      6.29186      6.38073         0.003944     -0.039389     -0.024005
Li	      6.18488      4.25751      6.36498        -0.016027     -0.015917     -0.013433
Li	     10.31372      8.44346     10.57408         0.062999     -0.070364     -0.022426
Li	      8.37015      6.43414     10.63093         0.029754     -0.009829     -0.118789
Li	      2.15649      4.27472      6.28813        -0.065609     -0.073831     -0.058492
Li	      4.22704      4.20733      8.43936         0.003411     -0.033677      0.000467
Sc	      6.41125      2.16178      4.33516         0.013257      0.011342      0.051586
Ti	      4.23330      8.31646      8.30613        -0.032605      0.021186     -0.056556
Ti	      6.33728      6.23861      8.46018         0.215123     -0.180027      0.276461
Mn	      6.29461      6.27208      4.29766         0.010716     -0.028835      0.062751
Cr	      4.16374      4.20706      4.29493        -0.016354      0.007070     -0.134196
Fe	      8.38085      4.20107      8.32354        -0.068648      0.058160      0.222572
Cu	      0.10606      6.29741      6.29217         0.047755      0.048639     -0.000189
Cu	      6.27609      2.12171      8.35403        -0.062009      0.124045     -0.031867
Cu	      4.05221      6.24093      6.31470         0.146606      0.237566      0.068346
O	      2.07711      6.28724      6.30051        -0.112038     -0.079523      0.044798
O	      2.21338      2.09365      2.30824         0.201097     -0.121317     -0.000493
O	      4.15307      4.04883      2.27795         0.135979     -0.261230      0.112980
O	      4.08118      2.16973      4.24610         0.064283     -0.064473      0.020818
O	      6.19685      4.29371      4.29456         0.033609      0.053123     -0.034812
O	      6.30597      2.05690      6.41109         0.049602     -0.048398     -0.216057
O	      8.56159      4.17388      6.44927        -0.110966     -0.046402     -0.242964
O	      2.15332      3.99890      4.14673        -0.038100      0.100429      0.048497
O	      4.34946      6.22194      4.01726        -0.107283      0.049256      0.227043
O	      4.13847      4.30726      6.24545        -0.085966     -0.160359      0.045364
O	      6.18196      6.31503      6.26436         0.053127      0.042156     -0.076784
O	      6.34287      4.32210      8.38394        -0.090011      0.333671      0.011045
O	      8.26818      6.24455      8.41897        -0.290747      0.090228     -0.056592
O	      4.17288      8.38513      6.45459         0.024584     -0.031486     -0.011284
O	      4.30143      6.42596      8.49884        -0.062731      0.039552     -0.025286
O	      6.16938      8.31874      8.49836        -0.078495      0.020057     -0.103588
O	      6.29279      6.34310     10.33167         0.066593     -0.095221     -0.091435
O	      8.33634      8.42617     10.52663         0.118862      0.002886     -0.002506
