# total energy = -229.70067794 eV
 
CRYSTAL
PRIMVEC
0.007297 6.075881 6.425994 
6.260775 0.007893 6.426195 
4.196489 4.073966 -0.017735 
PRIMCOORD
36 1
Li	      4.19308      4.01658      0.08436         0.050306      0.009840      0.019837
Li	      2.15079      6.09137      8.47973         0.028904      0.044495     -0.015701
Li	      4.21087      8.10298      8.43120        -0.051373     -0.002190     -0.061743
Li	      4.23382      6.07502     10.63922         0.000549     -0.017674     -0.052731
Li	      8.37188      4.04630      8.49900         0.022807     -0.009130      0.019832
Li	      4.20583      4.03965      4.26829        -0.020386      0.031622      0.020651
Li	      6.26052      4.05451      6.47146         0.005004     -0.004873      0.006145
Li	     10.43808      8.17280     10.72032        -0.008346      0.032048      0.047369
Li	      6.26579      8.13335      6.49378        -0.030586      0.048772     -0.019779
Sc	      2.09154      5.99755      4.32058        -0.025610     -0.075264      0.081733
Ti	      6.25500      8.21486     10.53906         0.048479      0.141612     -0.303600
Ti	      2.10995      2.05593      4.31753         0.021072      0.118724     -0.028546
Mn	      8.42051      2.14120      6.43010         0.002778      0.041631     -0.027223
Cr	      0.06270      1.99060      2.15586         0.079257     -0.183860      0.027458
Fe	      8.39604      6.08413      6.43565         0.023860     -0.070949      0.025199
Ni	      4.19406      6.08065      6.49987        -0.006298     -0.062986     -0.177433
Ni	      6.22516      6.01796      8.55537         0.069467     -0.006292     -0.088159
Ni	      4.17538      4.10283      8.52574        -0.042030     -0.046012      0.040378
O	      1.99210      2.04030      2.31986         0.023450     -0.006911      0.047580
O	      4.18244      4.25747      2.11562         0.006877      0.121543      0.062918
O	      4.16623      2.02890      4.37964         0.037133     -0.010026     -0.037004
O	      6.25912      4.04985      4.25398        -0.015326     -0.114228      0.019104
O	      6.32518      2.05200      6.47751         0.003072     -0.013411      0.049876
O	      8.39240      4.09343      6.44882        -0.022514     -0.099324      0.001754
O	      2.08477      3.94282      4.31210         0.008657     -0.173120      0.026479
O	      4.27460      6.07591      4.18254         0.059594     -0.000496     -0.048042
O	      4.14557      3.96792      6.48843         0.023878      0.012011     -0.127750
O	      6.31278      6.06080      6.28157         0.070874      0.000750     -0.050268
O	      6.21888      3.94625      8.59473         0.140505     -0.116710      0.009620
O	      8.43461      6.09385      8.53145         0.027185     -0.103351      0.026853
O	      2.15487      6.20894      6.35044        -0.185670      0.002877      0.021718
O	      4.06432      8.12140      6.40158         0.030901      0.111149     -0.031707
O	      4.25318      6.07347      8.49653        -0.168616      0.189318      0.144224
O	      6.23697      8.12783      8.67815        -0.049485      0.072546      0.207308
O	      6.31603      6.19453     10.62512        -0.046726      0.122315      0.088811
O	      8.19609      8.12425     10.64983        -0.111644      0.015559      0.074840
