# total energy = -225.33851419 eV
 
CRYSTAL
PRIMVEC
-0.022077 6.258984 6.215174 
6.284752 -0.022189 6.215220 
4.180456 4.163240 -0.005198 
PRIMCOORD
36 1
Li	      8.32570      2.10690      6.23063        -0.051255      0.041839      0.190641
Li	      2.11093      6.26830      8.25756        -0.036682      0.200299      0.076345
Li	      4.14899      8.28660      8.26150        -0.172876      0.032849      0.101043
Li	      8.34656     10.28791     10.34988        -0.025987      0.145101      0.049103
Li	      6.35693      8.31096     10.35334        -0.147706      0.036520      0.062653
Li	      6.39741      2.08532      8.17719         0.087634     -0.018694      0.011661
Li	      6.33683      4.07447      6.23337         0.108915     -0.030189     -0.061398
Li	     10.36266      8.40541     10.36247         0.103381     -0.008102      0.007564
Li	      6.21266      8.34217      6.30090        -0.080291      0.016377     -0.101901
Sc	      8.37862      6.30826     10.38612        -0.003252     -0.566037      0.108954
Ti	      4.13284      4.11994      0.12927        -0.213791      0.061056      0.313020
Ti	      4.27142      4.08199      4.22521         0.276816     -0.297987     -0.238986
Mn	      6.22847      6.26008      8.27287         0.013526     -0.475480     -0.137823
Cr	      2.06314      2.10305      4.12521         0.089841     -0.090724     -0.050346
Ni	      8.31629      4.09831      8.26068         0.099260     -0.228673     -0.008422
Ni	      4.14492      6.37726      6.24646        -0.038425      0.102135     -0.065588
Ni	      8.38754      6.19489      6.20191        -0.019161     -0.091804     -0.152371
Ni	      4.18436      4.18424      8.26675         0.063235     -0.014787      0.129145
O	      2.04401      2.14943      2.21857         0.086224     -0.371605     -0.182875
O	      4.11869      4.15075      2.07210         0.336340      0.047517     -0.088265
O	      4.08215      2.17223      4.16052         0.101881      0.329831     -0.097416
O	      6.15682      4.24575      4.09555        -0.316890     -0.166711      0.101115
O	      6.23183      1.89597      6.21321         0.204372     -0.138268     -0.068753
O	      8.46042      4.15053      6.21089         0.198609     -0.171570     -0.197925
O	      2.20686      4.12823      4.11606         0.090898      0.250614      0.225664
O	      4.21449      6.16264      4.18094        -0.207426      0.002854     -0.068977
O	      4.19539      4.16893      6.13505        -0.011709      0.058087      0.016507
O	      6.25742      6.25732      6.26714        -0.039393      0.044684      0.261326
O	      6.25351      4.29046      8.26691        -0.536368      0.271548     -0.082584
O	      8.20809      6.19420      8.24398        -0.043690      0.480111      0.213234
O	      1.98122      6.27383      6.22187        -0.049003     -0.006379     -0.127235
O	      4.14159      8.45711      6.21063         0.013619      0.162480     -0.053314
O	      4.31507      6.22913      8.24022         0.026895     -0.099819      0.204853
O	      6.35730      8.15465      8.28310         0.107791      0.240420     -0.035143
O	      6.30284      6.22525     10.26414         0.024007      0.050624     -0.104226
O	      8.38006      8.29437     10.25433        -0.039340      0.201883     -0.149279
