# total energy = -250.74775107 eV
 
CRYSTAL
PRIMVEC
-0.002593 6.286611 6.423650 
6.295404 -0.001113 6.422209 
4.203058 4.196356 -0.007111 
PRIMCOORD
36 1
Li	     10.43901      4.27094      6.52114         0.006358      0.029022      0.039824
Li	      6.22825      4.08674      2.19086         0.010978     -0.006704     -0.002194
Li	      4.30129      8.47258      8.56172        -0.022861      0.011742      0.001027
Li	      6.32575      8.37356     10.51914         0.030446      0.017923     -0.083244
Li	      8.40144      4.23861      8.58016         0.011406      0.024031      0.041444
Li	      4.25765      2.04651      6.42859         0.020665      0.003917     -0.006491
Li	      6.32553      4.15539      6.47943        -0.007677     -0.004756     -0.001843
Li	      6.30099      4.20851     10.60828        -0.009368     -0.004854      0.005495
Li	      8.33476      8.33279      8.60723         0.001612     -0.003258      0.038640
Sc	      2.11077      2.11941      0.04877         0.031908     -0.011405     -0.153644
Ti	      8.46032      4.19438      4.34094         0.010311     -0.130187      0.148462
Ti	      6.20961      2.16380      8.48614        -0.173273      0.031738     -0.155425
Ti	      4.24653      6.21581      6.64331         0.022685     -0.054331      0.256913
Mn	      4.27279      4.10962      4.20846        -0.044022     -0.064638     -0.009390
V	      2.06736      2.11481      4.21515         0.097813      0.089294     -0.018786
Cr	      6.26553      8.39289      6.46753        -0.015959     -0.094336     -0.059997
Co	      8.30532      6.29468     10.67393        -0.027387      0.082447     -0.062304
Co	      6.35276      6.23319      8.56711         0.072199     -0.007487      0.003064
O	      1.98222      2.15559      2.12499        -0.058505      0.006968      0.069299
O	      4.19431      4.37551      2.12569         0.013283      0.086527     -0.058919
O	      4.11588      1.97670      4.23284         0.059098     -0.098111      0.018557
O	      6.44046      4.28394      4.22144         0.099961     -0.002442      0.026242
O	      6.31895      2.11910      6.58158         0.020183      0.021425      0.240224
O	      8.43536      4.18102      6.23609         0.013462     -0.021495     -0.188318
O	      2.08681      4.11448      4.42083        -0.037237      0.001465      0.052832
O	      4.24454      6.31428      4.26638        -0.086724      0.055004     -0.018847
O	      4.11382      4.31747      6.39514         0.004958      0.149545      0.067342
O	      6.19840      6.33916      6.36948        -0.166934     -0.024762      0.000654
O	      6.29467      4.11794      8.55323         0.007674     -0.107851      0.007380
O	      8.46236      6.30029      8.63038         0.154799     -0.058553      0.067472
O	      2.22293      6.25015      6.35762         0.031937      0.006130      0.006971
O	      4.22099      8.22771      6.47277        -0.026529     -0.070720      0.020272
O	      4.21005      6.23684      8.50445         0.022120     -0.009085     -0.320179
O	      6.30226      8.31078      8.43424        -0.043186      0.000948     -0.042208
O	      6.21086      6.31474     10.67412        -0.027305     -0.018694     -0.010898
O	      8.36003      8.52277     10.76552         0.003112      0.175544      0.080574
