# total energy = -245.36918181 eV
 
CRYSTAL
PRIMVEC
0.063782 6.359272 6.256215 
6.289318 0.070956 6.248703 
4.245749 4.287081 -0.004937 
PRIMCOORD
36 1
Li	     10.52400      4.35445      6.25090        -0.032772     -0.064081     -0.001884
Li	      4.30215      8.55514      8.32080        -0.015152      0.033160      0.037817
Li	      6.27775      2.18457      4.20167        -0.023672      0.078586     -0.031469
Li	      0.04945      2.12004      2.10242         0.006242     -0.000521      0.041164
Li	      2.12835      4.25446      2.10608         0.023790     -0.052607     -0.042518
Li	      2.14495      2.23316      4.17498         0.016812     -0.022721     -0.034611
Li	      0.10688      4.19389      4.15642        -0.000069     -0.031425     -0.041814
Li	      6.32119      8.46889      6.24404        -0.071345     -0.071626      0.020231
Li	      6.38845      6.40021      8.28736        -0.003004     -0.038801      0.010927
Sc	      8.49592      8.56666      8.39275         0.164049     -0.008063     -0.058029
Ti	      2.25999      8.52994      6.28674         0.127667      0.172521      0.269269
Ti	      6.16382      4.26242      2.19136        -0.279521      0.280806      0.217462
Ti	      2.07010      6.21509      4.09875        -0.044412     -0.060734     -0.091589
Mn	      4.33284      0.23329      4.13930        -0.069269      0.058125     -0.045206
V	      6.35584      4.31050      6.30077         0.126761      0.280298     -0.187112
Cr	      4.27150      6.41908      6.23539         0.070600      0.004763     -0.027428
Cu	      4.16149      4.22299      4.15904         0.083586      0.058412     -0.232072
Cu	      4.23271      2.16920      6.25802        -0.001940     -0.108283      0.076435
O	      2.09735      1.98660      1.94515         0.050335      0.104466     -0.230721
O	      4.36233      4.29733      1.97045        -0.007913      0.011770     -0.121489
O	      4.21573      2.27502      4.24695         0.016941     -0.162485     -0.105794
O	      6.37126      4.35436      4.11419         0.233306     -0.014542     -0.082132
O	      6.38934      2.43025      6.20756        -0.007655     -0.637613     -0.075816
O	      8.40913      4.15792      6.24903         0.263297     -0.001778      0.081379
O	      2.11480      4.36628      4.18242        -0.258928     -0.187880      0.056915
O	      4.11496      6.28344      4.25077         0.073440      0.242091     -0.042704
O	      4.34354      4.42720      6.33067        -0.262921     -0.085923      0.026495
O	      6.28137      6.26407      6.23457        -0.027033      0.402728     -0.010637
O	      6.32852      4.30550      8.21825         0.050254      0.039200      0.423046
O	      8.45264      6.48681      8.43005        -0.010117     -0.252753      0.053281
O	      2.21334      6.48429      6.23228        -0.138624     -0.159454     -0.016895
O	      4.15352      8.42000      6.22997         0.036668      0.173567     -0.003835
O	      4.17549      6.39033      8.29245         0.060407      0.128805     -0.038177
O	      6.41923      8.74582      8.29113        -0.108875     -0.227742     -0.056796
O	      6.48898      6.43956     10.44357        -0.038249      0.074818      0.057144
O	      8.49506      8.45808     10.47228        -0.002681      0.044918      0.207161
