# total energy = -251.39296814 eV
 
CRYSTAL
PRIMVEC
-0.008258 6.356132 6.341463 
6.326452 -0.005316 6.338598 
4.224528 4.242290 -0.010208 
PRIMCOORD
36 1
Li	      8.34995      2.19577      6.23668         0.007180      0.013966      0.010145
Li	      8.47893     10.51955     10.65506         0.015232     -0.053678      0.074114
Li	      6.32377      2.26296      8.46281         0.020142      0.036359     -0.039259
Li	      6.22508      6.40548      4.28102        -0.081400      0.023950     -0.032895
Li	      4.17875      4.30741      4.27976        -0.002127      0.026062      0.031963
Li	      6.36467      4.20425      6.42300        -0.009119     -0.023900      0.038141
Li	      6.34093      4.23008     10.46710         0.024602      0.001311     -0.028578
Li	      2.11087      4.20383      6.25172        -0.033931      0.014689     -0.028282
Li	      6.37688      6.19303      8.47722         0.031203     -0.050220      0.003759
Sc	      8.35245      6.38211      6.29738         0.030876     -0.036603      0.019086
Ti	      6.31298      4.29622      2.19563        -0.143234      0.215087      0.232116
Ti	      4.21316      2.13950      2.12388         0.003192     -0.000714     -0.280394
Ti	      2.16094      6.28536      4.16475         0.073989     -0.151708     -0.064396
Mn	      4.35870      4.26118      8.47489         0.100255     -0.042505     -0.031161
V	      4.27934      6.32632      6.30233        -0.025805      0.043923     -0.058220
Cr	      6.33522      8.45421     10.58444         0.050126     -0.076284      0.151058
Fe	      2.05022      4.14466      2.09165         0.155863      0.011422     -0.014866
Co	      6.31616      6.33783     12.63218        -0.041785     -0.010686     -0.014793
O	      2.18454      1.99218      2.16017         0.162456     -0.306814      0.071410
O	      4.33252      4.14502      2.06731         0.193680     -0.187242      0.093362
O	      4.28299      2.11359      4.13833        -0.008949      0.014323     -0.120679
O	      6.35743      4.15277      4.03752        -0.060920      0.025834     -0.270559
O	      6.25334      2.10373      6.22642         0.051824      0.038763     -0.061825
O	      8.49631      4.28128      6.37862        -0.031053      0.037086     -0.116800
O	      2.08916      4.39502      4.17220         0.067125      0.189531      0.068403
O	      4.07666      6.38192      4.25160        -0.079899     -0.001445      0.007521
O	      4.19751      4.29131      6.32738        -0.032377      0.002363     -0.075668
O	      6.26822      6.38611      6.27624         0.054562     -0.025092      0.037224
O	      6.37570      4.22343      8.46907        -0.274471      0.029627     -0.049682
O	      8.43770      6.34785      8.51304         0.008333      0.021456      0.115235
O	      2.18053      6.33224      6.35029        -0.047761      0.022367      0.036661
O	      4.22310      8.40641      6.53093         0.009599     -0.013964      0.226009
O	      4.10912      6.45711      8.42408        -0.060041      0.155006      0.027143
O	      6.21274      8.58594      8.52207        -0.120716      0.030026      0.033112
O	      6.44554      6.44061     10.57005        -0.006177      0.035046      0.006252
O	      8.33107      8.36318     10.58423        -0.000474     -0.007342      0.005347
