# total energy = -102.48621944 eV
 
CRYSTAL
PRIMVEC
-0.000329 2.104642 2.106648 
6.187772 0.040437 -2.148149 
-2.026825 6.408328 -4.305806 
PRIMCOORD
16 1
Li	      0.10321      2.31623      1.89021         0.043317      0.001539      0.015025
Li	      1.86584      2.23608     -0.12180        -0.013617     -0.010422     -0.006243
Li	      0.14443      4.04351      0.17198         0.030008      0.009199     -0.014301
Li	     -0.04085      6.45824     -2.25363        -0.012986      0.009069      0.002458
Ti	      4.35032      4.29362     -4.29303         0.576639      0.062107     -0.066433
Ti	      1.92226      6.44474     -4.34654        -0.603262      0.083170     -0.078850
Ni	      4.18761      2.14772     -2.14943        -0.052080     -0.033999      0.040976
Ni	      1.98385      4.19995     -2.09151        -0.084218      0.057287     -0.058567
O	      4.08175      4.37579     -2.26838         0.097322      0.118937     -0.130414
O	      4.16261      2.00490      0.09873        -0.019601     -0.145001      0.164184
O	      2.12307      6.49529     -2.28540         0.029169      0.063085     -0.069481
O	      2.18369      2.21718     -2.21474        -0.081117     -0.118736      0.111733
O	      4.10688      6.25090     -4.14411        -0.012854     -0.110285      0.104838
O	      0.13876      6.38914     -4.28864         0.581077      0.020590     -0.016329
O	     -0.04383      4.30553     -2.19726        -0.632103     -0.016624      0.015285
O	     -0.06970      2.11340     -0.00715         0.154307      0.010083     -0.013880
