# total energy = -248.64269304 eV
 
CRYSTAL
PRIMVEC
-0.034142 6.344315 6.377867 
6.440968 0.016650 6.327204 
4.300947 4.203338 0.003642 
PRIMCOORD
36 1
Li	      4.26946     10.48858      6.36455         0.049579     -0.030880     -0.039886
Li	      2.36423      6.34762      8.52301        -0.086921      0.014246      0.049327
Li	      4.24743      8.22016      8.47513         0.029297      0.137247     -0.021902
Li	      4.24931      6.35454     10.37242         0.015629     -0.013000      0.129273
Li	      2.16332      4.18353      2.16073         0.061816     -0.074551      0.023307
Li	      2.20797      2.06886      4.18891         0.040149     -0.028228      0.005102
Li	      4.22893      6.37664      6.63260        -0.070448      0.059859     -0.058791
Li	      4.24946      4.47700      8.50593        -0.053679     -0.041464      0.048453
Li	      6.14441      6.39102      8.49999        -0.024090      0.069986      0.027168
Sc	      6.37790      8.50921      6.51007        -0.078161      0.068798      0.076287
Ti	      0.15459      2.13096      2.07055         0.521589     -0.128911     -0.004182
Ti	      4.33787      4.13819      4.18211         0.199425     -0.184601     -0.158510
Ti	      8.47894      6.19898      6.48919        -0.227371     -0.181438      0.020969
Mn	      6.45965      8.42354     10.48339         0.017656     -0.011467      0.004712
V	      6.42921      4.28704     10.55358         0.052390      0.098679      0.190797
Cr	      8.57873      6.35566     10.50709        -0.073140      0.054917      0.089237
Fe	      2.16609      8.43348      6.39389         0.090337      0.084438     -0.042273
Ni	      6.36627      4.28051      6.39651        -0.010404      0.036165     -0.024902
O	      2.01945      2.12543      2.12802        -0.551470     -0.003203     -0.018253
O	      4.26361      4.35308      2.28479        -0.009363      0.106489      0.222559
O	      4.26734      2.24131      4.35022        -0.042358      0.227596      0.107195
O	      6.22273      4.27013      4.34002        -0.294524     -0.010926     -0.079670
O	      6.30854      2.15062      6.42683        -0.080127     -0.117402      0.178176
O	      8.52244      4.30749      6.31384         0.053823      0.234657      0.057885
O	      2.20530      4.30260      4.26245         0.081673      0.017475     -0.026711
O	      4.19769      6.33971      4.11094         0.005210     -0.066905     -0.161947
O	      4.25086      4.13271      6.26132        -0.056603     -0.075846     -0.061602
O	      6.58620      6.33282      6.39009         0.280550      0.080939      0.072469
O	      6.44370      4.08402      8.49921         0.034993     -0.163039      0.079582
O	      8.69625      6.30002      8.38108         0.048959     -0.024811     -0.133743
O	      2.10983      6.37044      6.20833         0.005291     -0.082163     -0.138908
O	      4.31381      8.43018      6.23725         0.060542      0.021171     -0.173099
O	      4.25272      6.35991      8.50418        -0.005532     -0.006038     -0.018528
O	      6.38829      8.49367      8.45018        -0.026361      0.013929     -0.067598
O	      6.57716      6.24537     10.52326         0.060882     -0.011974     -0.035762
O	      8.64544      8.36369     10.57610        -0.019238     -0.069742     -0.116232
