# total energy = -252.32569599 eV
 
CRYSTAL
PRIMVEC
-0.007849 6.422511 6.245887 
6.369619 -0.000061 6.237883 
4.251617 4.281493 -0.005010 
PRIMCOORD
36 1
Li	      6.35945      4.31301      2.13712        -0.000043      0.006472     -0.000293
Li	      4.14885      2.21332      2.13699        -0.085446      0.017502      0.002753
Li	      6.28339      2.15917      4.06811        -0.017045      0.047261     -0.056091
Li	      2.13516      4.21570      2.20769         0.002907     -0.044169     -0.033519
Li	      2.17843      2.20188      4.03845         0.014937     -0.000303     -0.013443
Li	      4.19543      2.16425      6.21217        -0.044017      0.032578      0.009368
Li	      6.48039      4.34387     10.29014         0.037011      0.013099      0.023347
Li	      2.06613      6.30446      4.13358         0.027915     -0.012915     -0.026994
Li	      6.43399      6.40155      8.37378         0.057519     -0.000688      0.025786
Sc	      6.42903      4.26711      6.25858        -0.022052      0.046321     -0.057158
Ti	      0.05655      0.06524      0.00993        -0.055093      0.120931     -0.179651
Ti	      4.34874      6.48644      6.23038         0.233615     -0.057785     -0.089884
Ti	      8.43133      8.45707      8.49826        -0.151791     -0.247994      0.133713
Mn	      4.23222      0.16293      4.02867        -0.032265      0.062273     -0.041599
V	      4.23271      4.19919      4.10208        -0.003325      0.001095      0.030247
Cr	      2.14305      8.54693      6.25197        -0.036326      0.043315      0.023733
Fe	      4.27961      6.39543      2.17195        -0.028273      0.045372      0.048376
Fe	      6.33433      8.56190      6.21538         0.062385     -0.035220      0.053714
O	      2.04379      2.14647      1.96326         0.121390     -0.007148     -0.082127
O	      4.23839      4.22445      1.97816        -0.003200      0.019457     -0.240749
O	      4.25091      2.24483      4.15104        -0.013880     -0.106931      0.011644
O	      6.28314      4.28811      4.18656         0.028212      0.004348      0.055596
O	      6.46301      2.05653      6.20862         0.061449     -0.171034     -0.080874
O	      8.55737      4.19725      6.24619         0.097628     -0.067162      0.065768
O	      2.22445      4.28437      4.22483        -0.023629      0.001826     -0.115889
O	      4.21910      6.32189      4.31639         0.020664      0.040614      0.337052
O	      4.29859      4.39448      6.25292         0.111235      0.093007      0.074776
O	      6.25014      6.37357      6.25204        -0.301864     -0.078466      0.017939
O	      6.22202      4.31911      8.31900        -0.068315      0.031298     -0.022129
O	      8.56989      6.57684      8.29427        -0.159701      0.290715      0.053314
O	      2.06862      6.51681      6.24495        -0.078146      0.060587     -0.020221
O	      4.17140      8.50582      6.26477        -0.116324     -0.061794     -0.015723
O	      4.20769      6.29586      8.16490         0.025670     -0.035744     -0.151868
O	      6.54151      8.51082      8.22810         0.248892     -0.011116      0.202619
O	      6.35344      6.37235     10.62344         0.064419      0.029160      0.244238
O	      8.45934      8.59631     10.36801         0.024889     -0.068758     -0.185771
