# total energy = -244.72531946 eV
 
CRYSTAL
PRIMVEC
-0.002469 6.390945 6.423538 
6.383696 0.007130 6.414056 
4.254410 4.252993 0.006147 
PRIMCOORD
36 1
Li	      0.07901      6.21114      6.25063        -0.014011      0.029767     -0.058799
Li	      2.34134      8.40102      6.26577         0.040039     -0.006799     -0.011947
Li	      4.31172      8.45012      8.33944        -0.007397     -0.016627      0.038601
Li	      6.56573      8.33296     10.65504        -0.072509      0.049569      0.017837
Li	      4.15328      8.59489      4.48057        -0.016475      0.019105     -0.099226
Li	      8.31415      6.60902     10.78612         0.030670     -0.034979     -0.012287
Li	      4.21108      6.60239      6.48850         0.015333     -0.062220      0.013830
Li	      8.47168      8.49996      8.71552         0.027401      0.008760      0.056840
Li	      6.38689      6.47944      8.66152         0.064537      0.002108      0.021175
Sc	      4.39949      6.26520     10.69652         0.034492      0.016855      0.020210
Ti	      2.19459      6.25626      8.39328         0.135518     -0.186009     -0.173008
Ti	      6.31198      2.24675      8.48621        -0.091519      0.244577     -0.129420
Ti	      4.23320      4.29430      4.32584        -0.101388      0.040998      0.071920
Mn	      8.53150      4.23484      8.49465         0.028234     -0.028420      0.003894
V	      6.35458      6.38329      4.31798        -0.015341     -0.001256      0.005054
Cr	      4.25870      2.15644      6.41012         0.019270      0.016065      0.052467
Ni	      6.37626      4.27692      6.44365        -0.033821      0.039873      0.021204
Ni	      6.24886      8.53233      6.45309         0.239016     -0.054395     -0.042905
O	      1.97766      2.04442      2.26877        -0.029185     -0.086370     -0.045955
O	      4.35029      4.33533      2.31312         0.078894     -0.030922      0.047035
O	      4.18911      2.23148      4.37466         0.033529      0.025932      0.046214
O	      6.29372      4.33849      4.27881        -0.078510     -0.012447     -0.092396
O	      6.29224      2.17120      6.57493        -0.022413     -0.099009      0.169658
O	      8.42440      4.40824      6.38532         0.119900     -0.002532     -0.064857
O	      2.28334      4.15346      4.29250         0.089251      0.071741     -0.053231
O	      4.26526      6.23740      4.19894        -0.028100     -0.097442     -0.023802
O	      4.29814      4.19546      6.27211        -0.110805      0.013635     -0.099246
O	      6.48311      6.39046      6.33337        -0.009699      0.007426      0.005622
O	      6.39082      4.11214      8.53073        -0.078412     -0.245664      0.095058
O	      8.63171      6.38563      8.45561         0.104342      0.070330      0.013452
O	      2.11788      6.37175      6.56032         0.020330      0.085676      0.236985
O	      4.29460      8.51715      6.42933        -0.171736     -0.027384     -0.050927
O	      4.06154      6.42689      8.61750        -0.257782      0.010047     -0.081085
O	      6.36099      8.65476      8.53399         0.047357      0.219050      0.061229
O	      6.35070      6.40036     10.64078         0.015127      0.008057      0.058263
O	      8.49731      8.56365     10.72963        -0.004134      0.012904     -0.017457
