# total energy = -250.43982333 eV
 
CRYSTAL
PRIMVEC
0.002942 6.339694 6.373604 
6.527052 -0.056191 6.434373 
4.306916 4.221850 0.007097 
PRIMCOORD
36 1
Li	      4.40061      8.39699      8.45961         0.022808     -0.022019     -0.019304
Li	      4.53361      6.26697     10.63611         0.031284      0.008535     -0.075670
Li	      6.61752      8.22566     10.65626         0.013794      0.104826      0.000690
Li	     10.72422      6.32175      8.51302        -0.023172      0.047351     -0.000034
Li	      8.73728      6.24507      6.53102         0.021014      0.048104      0.005816
Li	      8.47857      6.43003     10.51226        -0.011775      0.004732     -0.014470
Li	      6.39822      8.40594      6.45636        -0.058995     -0.001855      0.032048
Li	      8.59713      8.25682      8.70416        -0.000045     -0.008418      0.002080
Li	      6.63235      6.37173      8.65794         0.006407     -0.007550     -0.017398
Sc	      8.65511      8.41825     12.73245        -0.055239      0.025110     -0.066565
Ti	      6.59930     10.33691      8.50390         0.256890     -0.560890     -0.168410
Ti	      2.25193      2.09090      4.24130         0.220137      0.007248      0.046660
Ti	      4.26311      4.21676      4.27257        -0.146081      0.017721      0.068269
Mn	      6.47916      4.12612      6.50063        -0.029945      0.075938      0.045649
Mn	      6.44157      4.28654     10.62967         0.018667     -0.040044     -0.016830
V	      8.69710      4.28739      8.54569        -0.037420      0.037756     -0.038067
Cr	      4.34291      6.32200      6.42172        -0.001746     -0.011992      0.039837
Cu	      6.45932      0.09017      6.29762        -0.028777     -0.046758      0.001174
O	      2.18081      2.12451      2.25244         0.024592     -0.073766      0.193298
O	      4.34959      4.22069      2.26788         0.061954     -0.010269      0.274765
O	      4.15805      2.23028      4.31043        -0.344323      0.222688     -0.019822
O	      6.37563      4.32484      4.13506        -0.120387      0.123719     -0.062171
O	      6.54629      2.09406      6.42584         0.077908      0.087996     -0.024348
O	      8.60128      4.15568      6.49919        -0.002879      0.011660     -0.077840
O	      2.29308      4.14006      4.23181         0.281661     -0.204559      0.056599
O	      4.44436      6.23586      4.36104         0.104605     -0.159680      0.030304
O	      4.36361      4.27860      6.21688         0.004425      0.016723     -0.255914
O	      6.36682      6.27981      6.22187        -0.060186     -0.024514     -0.200290
O	      6.72869      4.14868      8.57956         0.023887      0.026365      0.014371
O	      8.71161      6.19553      8.55356        -0.047143      0.039951     -0.004201
O	      2.28089      6.33322      6.56943         0.119393     -0.024934      0.197573
O	      4.28114      8.32353      6.39170         0.013856     -0.136582      0.014072
O	      4.18518      6.28738      8.46082        -0.372073     -0.058194     -0.026513
O	      6.46680      8.53085      8.54407         0.071571      0.488241      0.039756
O	      6.50682      6.32298     10.70152         0.031494     -0.003036     -0.059661
O	      8.65520      8.39554     10.72979        -0.066164      0.000396      0.084545
