# total energy = -255.33632772 eV
 
CRYSTAL
PRIMVEC
0.033123 6.431300 6.306108 
6.420318 0.043844 6.295337 
4.302447 4.302895 0.006977 
PRIMCOORD
36 1
Li	      0.05710      6.42128      6.27463        -0.008671      0.001352     -0.002628
Li	      6.33806      4.37265      2.07521        -0.031097      0.019139     -0.007180
Li	      6.44165      2.16539      4.29782         0.008776     -0.002513      0.047549
Li	      4.35911      2.17291      6.25732         0.080358     -0.003998      0.044790
Li	      6.45756      4.27857      6.27129        -0.004961     -0.014040      0.044901
Li	      4.37660      8.59777      4.32211         0.021592     -0.037356      0.001031
Li	      2.12551      6.38190      4.29359        -0.016752     -0.057302     -0.056592
Li	      2.16261      4.39352      6.25752         0.010556      0.055588     -0.020489
Li	      4.21626      6.46869      6.25370        -0.010589     -0.028799     -0.061914
Sc	      4.27046      4.34768      8.29704         0.049061     -0.060652     -0.024975
Ti	      2.16098      8.44114      6.23429        -0.081060     -0.276586     -0.086950
Ti	      6.40334      6.50213      4.44257        -0.236151      0.138114      0.219050
Ti	      6.46813      6.48870      8.50235         0.192211     -0.139860      0.203324
Mn	      8.58411      4.35832      8.33163         0.032303     -0.012829      0.008907
Mn	      4.36346      4.28442      4.30770        -0.005805      0.043254     -0.038584
V	      4.34845      8.61666      8.32384        -0.055236      0.110153      0.032975
Cr	      8.55707      4.34319      4.26367         0.010787     -0.052872      0.097660
Fe	      6.43036      2.16868      8.35644        -0.048641      0.007672      0.103510
O	      2.22403      2.13463      2.00817        -0.004082     -0.038600     -0.039139
O	      4.34030      4.16393      2.14370         0.029109      0.064376     -0.035627
O	      4.18462      2.06488      4.14548        -0.064976     -0.061029     -0.019477
O	      6.55000      4.48343      4.20167         0.083596      0.108787      0.013239
O	      6.57678      2.18141      6.37333         0.143205      0.008341     -0.189003
O	      8.61166      4.23764      6.22448        -0.028054     -0.019495     -0.127775
O	      2.17478      4.11892      4.21044        -0.019852     -0.204785      0.080440
O	      4.49237      6.45462      4.10392         0.242055      0.034043      0.134046
O	      4.30604      4.31322      6.35512        -0.022619      0.012655      0.087722
O	      6.42962      6.47754      6.28387         0.035410      0.003064     -0.244459
O	      6.38760      4.50992      8.38986        -0.092356      0.160458      0.023064
O	      8.44943      6.53613      8.44875        -0.170764      0.082455      0.007370
O	      2.17993      6.58626      6.22887        -0.004981      0.292134      0.026748
O	      4.18919      8.55567      6.38177        -0.114053     -0.032366     -0.122972
O	      4.41847      6.50207      8.46284         0.096537     -0.050324      0.060491
O	      6.45403      8.47725      8.38029         0.036484     -0.109367      0.021884
O	      6.36838      6.48251     10.37678        -0.057041      0.008492     -0.316038
O	      8.57636      8.72577     10.57070         0.005702      0.052696      0.135100
