# total energy = -249.32411138 eV
 
CRYSTAL
PRIMVEC
-0.024629 6.314166 6.745908 
6.355039 0.026667 6.691350 
4.261538 4.199764 -0.007011 
PRIMCOORD
36 1
Li	      4.22851      6.28468     11.17092         0.016160      0.016774     -0.031238
Li	      6.35678      8.40652     11.19966        -0.041619      0.012535     -0.015398
Li	      4.24236      4.26235      4.75051         0.004110     -0.034148      0.073133
Li	      4.05379      2.35784      6.77529         0.000565      0.026621      0.052784
Li	      6.22384      4.33694      6.88671        -0.059658     -0.015519      0.025160
Li	      6.27800      4.29530     10.88641        -0.009164     -0.004073     -0.026188
Li	      2.30835      4.12396      6.82434        -0.045004      0.022760      0.056081
Li	      4.38868      4.24526      8.71059         0.004243      0.028825     -0.034956
Li	      6.34243      6.24152      8.80585        -0.023462      0.053381     -0.044859
Sc	      0.01751      6.24744      6.63536        -0.018732     -0.088300      0.004908
Ti	      8.42990      8.45003     13.26466        -0.002775      0.048864     -0.250755
Ti	      6.45204      4.11926      2.42053         0.191274     -0.169936      0.550711
Ti	      8.49706      6.23400     11.04186         0.104352     -0.133459     -0.267722
Mn	      6.30495      2.20332      8.91922        -0.022273      0.012518     -0.009372
Mn	      8.37418      4.27580      8.86640         0.046577      0.014056     -0.004953
Mn	      6.27652      6.36920      4.67954        -0.007197      0.009673      0.102543
V	      4.27413      2.08467      2.37618         0.020806     -0.103540      0.051126
Cu	      4.33478      6.22027      6.77631         0.000251      0.044831     -0.052069
O	      2.19294      1.98372      2.13444        -0.030428     -0.044882     -0.067511
O	      4.35739      4.11874      2.08514         0.085493     -0.048112     -0.015647
O	      4.18849      2.13632      4.15614        -0.063835      0.072115      0.002619
O	      6.34817      4.21315      4.23374        -0.016254     -0.001351     -0.495718
O	      6.53903      2.04096      6.71907         0.197818     -0.003422      0.032766
O	      8.58084      4.06037      6.66075        -0.012209     -0.155125      0.000542
O	      2.11779      4.32087      4.43343         0.039822      0.329287     -0.015263
O	      4.09214      6.33130      4.40555        -0.172465     -0.037056     -0.140528
O	      4.24968      4.28135      6.72968         0.030526     -0.111951     -0.035610
O	      6.31811      6.34723      6.72621         0.153505     -0.005375     -0.010998
O	      6.34158      4.24686      8.92653        -0.031513      0.118086     -0.087152
O	      8.42555      6.41147      9.15023        -0.073300     -0.071481      0.211604
O	      2.13311      6.38004      6.73777        -0.070382      0.035651     -0.047700
O	      4.09441      8.34081      7.01850        -0.132441      0.157154     -0.002377
O	      4.08703      6.40426      9.08414        -0.247163     -0.119774      0.061921
O	      6.20713      8.54232      8.96350         0.080074      0.197000     -0.015262
O	      6.52094      6.33109     11.31379         0.153049     -0.005903      0.050405
O	      8.50855      8.34965     11.42163        -0.048749     -0.046722      0.394971
