# total energy = -253.26000795 eV
 
CRYSTAL
PRIMVEC
0.004893 6.331303 6.518301 
6.325825 -0.036781 6.560905 
4.193563 4.224655 -0.000716 
PRIMCOORD
36 1
Li	      2.10390      2.07341      0.17229        -0.006784      0.025202      0.048037
Li	      2.01045      0.07755      2.12505         0.014531      0.006333     -0.008384
Li	      4.24185      6.19370      2.28334         0.013894      0.046030     -0.000828
Li	      2.22966      4.23325      2.20896        -0.076744      0.003947      0.030926
Li	      4.08498      4.35064      4.14849         0.023350     -0.025363     -0.148873
Li	      8.35436      6.30953      6.60427        -0.012708     -0.007845      0.015531
Li	      2.22617      6.18741      4.35220        -0.029124     -0.012514      0.011585
Li	      2.12305      4.21913      6.42866         0.021083     -0.009939     -0.055694
Li	      6.33637      6.29868      8.65642         0.005329     -0.014987      0.036753
Sc	      0.06823      4.18584      4.32225         0.037493     -0.024263      0.005179
Ti	      8.34381      4.23944      4.38015        -0.006582     -0.027821      0.093636
Ti	      6.29670      2.08161      4.39925        -0.023170     -0.040534      0.106961
Ti	      8.40552      8.25782      8.63460        -0.026132     -0.353202     -0.108240
Mn	      0.09550      0.05629      0.09803        -0.060408     -0.010159      0.024398
Mn	      4.21169      8.48221      8.60192         0.016157     -0.029423      0.000134
Mn	      4.10447      6.30426      6.52244         0.058492      0.008566     -0.032799
V	      2.10631      2.12720      4.31059         0.003080     -0.008033      0.013397
Fe	      6.35283      4.19529      6.67770         0.012127     -0.022490     -0.020300
O	      2.11713      2.08392      2.37597        -0.032122      0.013554     -0.112924
O	      4.19588      4.22960      2.11403         0.044354      0.039590      0.047771
O	      4.30120      2.02280      4.36872         0.094083     -0.083527      0.059230
O	      6.38789      4.15483      4.36335         0.108562     -0.061332     -0.001210
O	      6.36826      2.17289      6.31122        -0.033658     -0.041724     -0.150322
O	      8.46748      4.20463      6.31202        -0.015499      0.005114     -0.152925
O	      2.09454      4.11575      4.35168        -0.002356      0.105324     -0.001041
O	      4.23248      6.36057      4.33052        -0.042088     -0.009579      0.002458
O	      4.12731      4.25876      6.75445         0.016491     -0.012839      0.257847
O	      6.18674      6.21243      6.37173        -0.024711      0.105627      0.066854
O	      6.17245      4.23105      8.81169        -0.123430     -0.027222      0.003944
O	      8.38838      6.43868      8.70225         0.001239      0.359995     -0.017831
O	      2.14312      6.33595      6.53367         0.102619     -0.019123      0.008681
O	      4.18871      8.36952      6.44316        -0.005796     -0.025481     -0.003560
O	      4.25831      6.27474      8.92416        -0.000842     -0.023806      0.028163
O	      6.40965      8.40657      8.95737         0.112512     -0.001506      0.037476
O	      6.26020      6.39844     10.95332        -0.084113      0.090757     -0.066946
O	      8.35748      8.53620     10.78795        -0.079130      0.082673     -0.017080
