# total energy = -249.24792602 eV
 
CRYSTAL
PRIMVEC
0.015053 6.491096 6.343970 
6.399084 0.009159 6.350365 
4.266758 4.332701 0.005125 
PRIMCOORD
36 1
Li	      6.43288      6.51115     12.55631        -0.017632      0.042758     -0.027683
Li	      8.55930      8.60116     12.55950         0.002528     -0.055702      0.038600
Li	      6.36275     10.69777      8.47273        -0.027694      0.007107     -0.020467
Li	      4.44794      8.67846      8.40861        -0.046172      0.051618     -0.005983
Li	      6.55532      8.55290     10.46288        -0.035335     -0.036426     -0.012822
Li	      6.38762      4.32361      6.36781         0.011510     -0.011246      0.046229
Li	     10.53113      8.79734     10.58656        -0.035537      0.019294     -0.017929
Li	      8.45127      8.64904      8.58730         0.024577      0.009707     -0.001888
Li	      6.39829      6.64017      8.58995         0.017951      0.050400      0.003243
Sc	      6.42426      6.43304      4.22100         0.037659     -0.005959     -0.124186
Ti	      6.42712      2.27700      8.42535         0.117947      0.312818     -0.097916
Ti	      8.58835      6.43493      6.37753         0.138289     -0.311213      0.006348
Ti	      4.20340      6.59505      6.53393        -0.109911      0.197152      0.344117
Mn	      8.64096     10.65511     10.51341        -0.031149     -0.026717      0.007120
Mn	      8.50865      4.35837      8.48742        -0.032466     -0.044887     -0.027844
Mn	      6.38822      8.70123      6.42846        -0.022994      0.036454     -0.030930
V	      4.35644      4.33102      4.22739        -0.006629     -0.067849     -0.060646
Ni	      8.43956      6.62050     10.59669         0.060766     -0.060222     -0.072915
O	      1.95950      2.16409      2.13611        -0.101904     -0.032829      0.014196
O	      4.21589      4.47065      2.24105         0.071235      0.008574     -0.012437
O	      4.24212      2.22780      4.37294         0.007907      0.035334      0.116185
O	      6.34287      4.38564      4.23631         0.010850      0.055136     -0.007492
O	      6.24003      2.17626      6.48994        -0.144210      0.008704      0.121817
O	      8.50602      4.57709      6.34799        -0.014019      0.322652      0.007011
O	      2.25335      4.31860      4.36237         0.006966     -0.052379      0.072105
O	      4.29151      6.43660      4.20370         0.082836     -0.015791     -0.007270
O	      4.26653      4.33582      6.26414        -0.023474      0.011088      0.039381
O	      6.42598      6.51373      6.32152        -0.008011     -0.032609      0.026018
O	      6.41200      4.12269      8.48651        -0.079001     -0.332177      0.006451
O	      8.61618      6.54890      8.36492         0.007761      0.008414     -0.143572
O	      2.31906      6.46718      6.30704         0.199252      0.008105      0.160332
O	      4.32388      8.45914      6.35814         0.030863     -0.271934      0.022530
O	      4.28397      6.48518      8.33349        -0.009610      0.077145     -0.383050
O	      6.39147      8.69606      8.28229         0.037231     -0.030464      0.027664
O	      6.45977      6.47162     10.56959        -0.127572      0.049029      0.007967
O	      8.51181      8.61084     10.60523         0.007190      0.076917     -0.012285
