# total energy = -103.09128661 eV
 
CRYSTAL
PRIMVEC
-0.000066 2.114385 2.114306 
5.986588 4.180494 -6.294902 
-4.017652 2.110585 -2.110347 
PRIMCOORD
16 1
Li	      2.03139      8.34389     -6.22657         0.010772      0.014295     -0.011306
Li	     -2.03475      4.16606     -2.04697        -0.015945     -0.001953      0.000165
Li	      1.95265      6.30621     -4.18907         0.009947      0.005242     -0.003763
Li	      2.00054      4.24472     -2.12767        -0.011299     -0.003284      0.004742
Ti	      0.09029      2.10120     -2.09773         0.220482     -0.076264      0.074988
Ti	      3.96516      4.21014     -4.20885         0.013962      0.015120     -0.013885
Ni	     -0.01142      4.20945     -4.20533        -0.011978      0.001422     -0.001987
Ni	      3.88486      6.32553     -6.32212        -0.023103     -0.064596      0.062859
O	     -0.04140      6.36778     -4.25026        -0.005632      0.135333     -0.133355
O	     -0.01231      4.17334     -2.05458         0.016471     -0.128900      0.122803
O	      2.04675      4.20286     -4.19946         0.236210      0.008753     -0.010099
O	     -0.01644      2.23601     -0.11798         0.111143      0.102468     -0.107421
O	      1.95050      2.09167     -2.08911        -0.351822      0.016160     -0.009639
O	      1.85785      6.31698     -6.31265        -0.269331     -0.002093     -0.002442
O	     -1.93073      2.05762     -2.05454         0.077008      0.107705     -0.101156
O	      3.97493      6.23595     -4.11818        -0.006885     -0.129407      0.129496
