# total energy = -254.14076867 eV
 
CRYSTAL
PRIMVEC
0.008188 6.484158 6.631616 
6.289380 0.066745 6.572236 
4.245627 4.336867 -0.009262 
PRIMCOORD
36 1
Li	      4.24168      4.42742      0.19761         0.031890     -0.011619      0.029454
Li	      2.07620      2.12830      0.26951        -0.028086     -0.002853     -0.048959
Li	      6.22907      4.47326      2.39082         0.033710     -0.046091      0.006603
Li	      0.21870      2.09865      2.13665        -0.004640      0.024938      0.018457
Li	      2.24610      4.15144      2.33375        -0.043381      0.033545      0.019302
Li	      6.32822      6.37791      4.25562         0.031229     -0.001413     -0.000155
Li	      4.30790      4.38207      4.18142        -0.070085     -0.024302      0.007113
Li	      6.30608      4.40998      6.41348         0.057738     -0.006034      0.038489
Li	      0.10452      4.31359      4.36540        -0.026461     -0.018051     -0.004985
Sc	      6.32346      6.53310      8.79280         0.042204      0.034530      0.030452
Ti	      4.31450      2.08837      6.56066         0.181890     -0.390693     -0.112005
Ti	      4.15761      6.58046      6.42574        -0.169236      0.291790     -0.224864
Ti	      4.35311      4.38021      8.77998         0.256211     -0.099798      0.153260
Mn	      4.13270      2.31411      2.15201        -0.012477      0.014930     -0.011278
Mn	      8.40915      4.34804      4.48662         0.047280     -0.051988      0.079220
Mn	      6.29723      2.32545      4.43109         0.013449     -0.044316      0.012602
Mn	      2.06513      4.35324      6.46052        -0.095053      0.103968     -0.165066
V	      2.14280      6.44836      4.35975         0.025833     -0.107881      0.117805
O	      2.25460      2.17326      2.22843        -0.017140      0.032452     -0.025753
O	      4.24467      4.18744      2.17942         0.000634     -0.020027      0.016500
O	      4.14678      2.24631      4.67739        -0.033172      0.027710      0.164235
O	      6.35497      4.37199      4.39867        -0.022412      0.036746      0.038705
O	      6.16745      2.20730      6.65794        -0.194815      0.037297      0.048321
O	      8.42515      4.58795      6.63793         0.042045      0.335958      0.041220
O	      2.09488      4.54445      4.35821         0.021919     -0.017873     -0.084520
O	      4.19776      6.50144      4.54819        -0.041998      0.001546      0.208228
O	      4.18509      4.37502      6.81965         0.035284      0.033088      0.013872
O	      6.25252      6.50022      6.68758        -0.013713      0.016391     -0.039167
O	      6.17317      4.42464      8.82695        -0.327291     -0.021589     -0.037036
O	      8.39572      6.72337      8.71307         0.043714      0.031085     -0.094050
O	      2.24556      6.51026      6.45873         0.121158      0.072584      0.059623
O	      4.17887      8.44358      6.60518        -0.018432     -0.238883      0.031521
O	      4.21060      6.39512      8.70267        -0.023194     -0.010677     -0.094795
O	      6.17005      8.60720      8.77977         0.074249      0.069018     -0.026220
O	      6.37064      6.59403     10.89198         0.043001     -0.078437     -0.016575
O	      8.43935      8.63116     10.73047         0.038149     -0.005051     -0.149552
