# total energy = -240.63997993 eV
 
CRYSTAL
PRIMVEC
-0.009327 6.333903 6.367109 
6.328750 -0.002423 6.360379 
4.235328 4.234329 -0.018041 
PRIMCOORD
36 1
Li	      4.20876      2.05873      2.26085         0.029446     -0.028464      0.023439
Li	      6.18089      2.26588      4.18551         0.010944     -0.054533     -0.025967
Li	      0.04683      2.07913      2.10597        -0.060347     -0.029618      0.022530
Li	      6.48189      6.19240      4.24337         0.007862     -0.018363      0.013049
Li	      4.42542      4.00913      4.28347        -0.009557     -0.029867      0.028246
Li	      4.20126      2.15832      6.17280        -0.017293      0.006213      0.041940
Li	      6.17382      4.30356      6.18987        -0.091833      0.095950     -0.003812
Li	      4.24577      6.26532      6.46002         0.036427     -0.032542      0.049949
Li	      4.22953      4.29768      8.41374         0.024966     -0.018801     -0.059631
Sc	      2.14244      4.08379      2.05986         0.108825      0.183963     -0.038947
Ti	      4.21795      8.40811      4.24061         0.050110     -0.112633      0.125194
Ti	      8.48037      6.41373     10.54817         0.095106     -0.012433     -0.454197
Ti	      6.49468      8.32947      6.46067         0.385898     -0.410042      0.197927
V	      6.33741      0.16074      6.39210         0.010206     -0.192616      0.084079
Cr	      4.15163      0.09006      4.23438        -0.098579      0.079975     -0.239173
Co	      6.23485      6.37320      8.43558         0.139015      0.039011      0.039927
Cu	      2.06562      2.16097      0.09360        -0.171178      0.053457      0.081465
Ni	      2.12203      0.06013      2.19234         0.018737     -0.120404      0.014105
O	      2.07213      2.10423      2.18550        -0.012109      0.113457     -0.072468
O	      4.24824      4.22314      1.96182        -0.181344      0.011414      0.050766
O	      4.24106      2.01529      4.23348        -0.002149     -0.105786     -0.014492
O	      6.42547      4.20800      4.22025         0.104050     -0.027536      0.046543
O	      6.33895      1.92730      6.32219         0.168832      0.333381      0.044769
O	      8.56916      4.29964      6.31543        -0.052787     -0.098749     -0.073596
O	      2.00713      4.34369      4.24680        -0.141509      0.056574      0.010117
O	      4.05617      6.48556      4.26909        -0.271138      0.338798     -0.042269
O	      4.10828      4.20658      6.32629        -0.504613      0.001284      0.030990
O	      6.26831      6.46502      6.33068         0.078608      0.362537      0.094739
O	      6.36683      4.26346      8.65571        -0.038333      0.441573      0.025353
O	      8.36515      6.29115      8.67698         0.078036     -0.021783      0.419405
O	      2.03998      6.19256      6.25334         0.092939     -0.003920     -0.096022
O	      4.35494      8.61758      6.17746        -0.032007     -0.108893     -0.222266
O	      4.20550      6.33672      8.59513         0.049028      0.029815      0.095596
O	      6.35036      8.48916      8.33396        -0.022982     -0.601545     -0.248924
O	      6.33019      6.26942     10.67579         0.050255     -0.074663      0.014267
O	      8.54278      8.38496     10.58260         0.168465     -0.044209      0.037369
