# total energy = -243.29271030 eV
 
CRYSTAL
PRIMVEC
0.000636 6.228582 6.488142 
6.303674 0.031767 6.456792 
4.205527 4.134339 0.018646 
PRIMCOORD
36 1
Li	      4.25831     10.33396      6.53281         0.020717     -0.046907      0.046976
Li	      4.16074      2.14011      2.18172         0.001193      0.008670     -0.019908
Li	      2.15929      4.13885      2.34596        -0.002314      0.024224      0.045597
Li	      2.08608      2.22216      4.41023        -0.073881     -0.039308      0.072502
Li	      4.00021      4.19645      4.38942        -0.001038      0.067723      0.049748
Li	      6.21281      4.20870      6.45548        -0.039457      0.059764      0.024631
Li	      2.17673      6.07302      4.37026         0.065893      0.022752      0.023677
Li	      2.18936      4.13782      6.22724         0.022842     -0.056173     -0.078161
Li	      4.21732      4.13976      8.48134         0.008863      0.032835     -0.179196
Sc	      6.28364      6.16122      8.56280        -0.084914     -0.071806     -0.058866
Ti	      8.51591      2.25464      6.50489         0.515594      0.334439      0.033103
Ti	      2.08950      6.20787      8.55023        -0.127302     -0.081366     -0.157427
Ti	      6.28042      2.11018      4.36553        -0.042521      0.004298     -0.169638
V	      4.15889      6.23641      2.28609        -0.159300      0.020852     -0.066239
Cr	      4.19309      2.12702      6.48484         0.103124      0.086258      0.035171
Co	      0.14211      4.13892      4.32019         0.118268     -0.127958     -0.052912
Co	      4.21947      6.11765      6.38114         0.050014      0.093070      0.045373
Cu	      4.19596      0.04469      4.28451         0.010719      0.045962     -0.001025
O	      2.07637      1.99975      2.04858        -0.091187     -0.159298     -0.118179
O	      4.37354      4.22131      2.17573         0.297630     -0.097045     -0.029790
O	      4.32378      2.05295      4.44401         0.150025      0.079739      0.057417
O	      6.41759      4.06288      4.17220        -0.047326     -0.183765     -0.040014
O	      6.30575      2.11524      6.42150         0.049683      0.021423     -0.079987
O	      8.43930      4.12033      6.58547         0.006142     -0.334882      0.072040
O	      2.07336      4.16544      4.30163        -0.107038      0.010681     -0.012800
O	      4.18869      6.21323      4.27953        -0.013141      0.184905      0.214418
O	      4.21008      4.10258      6.43864        -0.078094     -0.022085      0.031425
O	      6.39944      6.21686      6.51796         0.017715     -0.013797      0.053177
O	      6.25036      4.12295      8.65567         0.019324      0.090888      0.040315
O	      8.40554      6.24593      8.52432        -0.030703     -0.054355      0.030351
O	      2.07505      6.30290      6.63144         0.034040      0.098045      0.201852
O	      4.07215      8.27750      6.47382        -0.549859     -0.095439      0.015745
O	      4.13076      6.23705      8.50619        -0.062192     -0.067529     -0.347505
O	      6.27213      8.35637      8.84367         0.028008      0.131365      0.160258
O	      6.22040      6.34603     10.74147         0.109601      0.133422     -0.006828
O	      8.28113      8.32768     10.99960        -0.119128     -0.099603      0.164699
