# total energy = -243.11033111 eV
 
CRYSTAL
PRIMVEC
0.011535 6.342856 6.354912 
6.393278 0.006325 6.360108 
4.263362 4.233155 0.003185 
PRIMCOORD
36 1
Li	      4.38784      8.41721      8.49496        -0.002035     -0.012906     -0.007680
Li	      4.23901      6.34167      2.31097        -0.014232      0.024698     -0.028775
Li	      6.24784      6.30649      4.22510        -0.024715      0.064050      0.014444
Li	      4.30076      4.42432      4.24963        -0.025582      0.018635      0.051118
Li	      2.30077      6.33601      4.17937         0.001838     -0.032484     -0.008660
Li	      6.37804      8.45670      6.46487        -0.057025     -0.000696      0.052128
Li	      4.35290      6.27856      6.29016         0.054873     -0.001836      0.015228
Li	      8.42545      8.51524      8.51002        -0.045986      0.065446     -0.004971
Li	      6.33682      6.47037      8.44569        -0.063322      0.016638     -0.005893
Sc	      2.17057      8.41124      6.37343         0.154136     -0.190488     -0.035397
Ti	      0.11524      6.25730      6.34119         0.350281     -0.340525     -0.015195
Ti	      2.10427      4.21482      2.29971        -0.173934     -0.022360      0.903362
Ti	      4.15287      2.24333      6.36719        -0.254960      0.365882      0.018622
V	      4.25025      6.37017     10.46457         0.056900     -0.096044     -0.188555
Cr	      6.38901      4.23168      6.35345        -0.125926      0.011182      0.053356
Co	      6.41517     10.50087      8.51934        -0.030606      0.009388     -0.016556
Co	      4.27600      8.32616      4.16866         0.101672      0.233188      0.141784
Ni	      6.40333      8.45072     10.50161         0.036607     -0.044511     -0.023192
O	      2.14516      2.24542      2.07046        -0.002257      0.060471     -0.057866
O	      4.13350      4.26027      1.93341        -0.063469     -0.008388     -0.119885
O	      4.32584      2.01013      4.43355        -0.098919      0.009047      0.155291
O	      6.41534      4.19201      4.33053        -0.028701      0.140304      0.019472
O	      6.37724      2.10578      6.31886         0.007118     -0.021693      0.016881
O	      8.50072      4.24074      6.31527         0.054956      0.004041      0.077379
O	      2.13721      4.26046      4.12713        -0.101661     -0.081625     -0.605765
O	      4.25027      6.38692      4.28383         0.018324      0.448537     -0.050358
O	      4.38317      4.10174      6.39664        -0.038129     -0.260066     -0.034953
O	      6.53866      6.25431      6.35385         0.241176     -0.005940      0.015479
O	      6.56256      4.23089      8.36260         0.141758     -0.068234     -0.104087
O	      8.55529      6.18095      8.29687         0.028833     -0.086982     -0.153428
O	      1.98542      6.36653      6.35531        -0.281938      0.004945      0.025316
O	      4.23794      8.61202      6.34279        -0.006711      0.237331     -0.000648
O	      4.20758      6.39648      8.54716         0.015926     -0.020595      0.008654
O	      6.38265      8.51590      8.50896         0.007123      0.016895     -0.152089
O	      6.35110      6.35393     10.74251         0.018488     -0.334279      0.028160
O	      8.54117      8.57406     10.63723         0.150101     -0.101024      0.017282
