# total energy = -244.88896966 eV
 
CRYSTAL
PRIMVEC
0.023612 6.262528 6.346452 
6.216517 0.040288 6.330496 
4.182595 4.202479 -0.011661 
PRIMCOORD
36 1
Li	      6.31076      4.20530      2.17401        -0.083041     -0.018044     -0.023774
Li	      4.17709      8.30441      8.50902         0.104788      0.013361     -0.002909
Li	      6.25814      8.39320     10.43385        -0.015471     -0.061590     -0.174572
Li	      6.28921      2.24505      8.48610        -0.022731      0.071094      0.033442
Li	      2.02888      4.12649      2.20728        -0.027463      0.042259     -0.010497
Li	      2.08356      2.12247      4.03233        -0.033800      0.031623     -0.048142
Li	      6.19729      4.25724      6.42699         0.007672      0.074926      0.099921
Li	      6.26209      8.36420      6.39287         0.019275     -0.070980      0.125093
Li	      8.33205      8.45558      8.51292        -0.069375     -0.063568      0.048183
Sc	      2.03315      2.13116      0.13619         0.069806      0.083201      0.007577
Ti	      4.26069      4.15333      0.14443         0.050199     -0.195811      0.160407
Ti	      4.22920      4.18495      4.12083        -0.035974     -0.043036     -0.082611
Ti	      8.24731      6.38325      6.42194        -0.434983      0.171367      0.347070
V	      4.19560      6.24728      6.35568         0.118239      0.044948      0.180311
Cr	      8.25592      4.24167      4.15666         0.122721     -0.052910     -0.111040
Co	      6.31595      4.20087     10.45014        -0.069444     -0.049712     -0.109404
Co	      8.31340      6.36771     10.43894        -0.107281     -0.024018     -0.011664
Co	      6.20433      6.36520      8.46382         0.247346     -0.697322     -0.378697
O	      2.07002      2.13924      2.05563         0.002919     -0.049483     -0.081969
O	      4.20912      4.13126      2.07127        -0.004325      0.036362     -0.158725
O	      4.13784      2.14524      4.32241        -0.043503      0.015072      0.076982
O	      6.17755      4.18258      4.18283         0.010409      0.040664      0.008823
O	      6.15232      1.95953      6.38204        -0.089906     -0.073716     -0.019068
O	      8.39320      4.29309      6.21629         0.027389      0.047567     -0.024986
O	      2.24315      4.26357      4.17855         0.193051      0.055841      0.027314
O	      4.18015      6.17438      4.21242        -0.079666     -0.099583      0.043187
O	      4.19694      4.11036      6.18943         0.033516     -0.204686     -0.147241
O	      6.33378      6.28454      6.34830         0.057416      0.023359     -0.060269
O	      6.26492      4.40902      8.46774        -0.102023      0.158206      0.114626
O	      8.35682      6.34751      8.28066        -0.107954      0.032839     -0.122542
O	      2.01279      6.27445      6.32367        -0.106738     -0.021224      0.114435
O	      4.18845      8.43536      6.29652        -0.031913      0.183818     -0.000934
O	      4.14915      6.28245      8.51781         0.552981      0.093061     -0.095114
O	      6.26710      8.17391      8.44107        -0.147057      0.349358      0.041143
O	      6.16562      6.31157     10.67103         0.035877      0.097156      0.145329
O	      8.36577      8.46907     10.58962        -0.040953      0.059605      0.090317
