# total energy = -237.85381093 eV
 
CRYSTAL
PRIMVEC
-0.011410 6.275921 6.303728 
6.286997 0.011966 6.280222 
4.200928 4.178099 -0.001731 
PRIMCOORD
36 1
Li	      0.00244      6.25679      6.29495         0.042174     -0.012184     -0.013711
Li	      6.21241      4.04197      2.15672        -0.053599      0.023563     -0.080934
Li	      4.32386      8.43269      8.38145        -0.030098     -0.000823      0.032414
Li	      4.19840      6.25386      2.24454        -0.011389     -0.006073      0.072721
Li	      6.18335      6.22835      4.15226        -0.010476      0.054116     -0.005729
Li	      4.27635      4.24953      4.10713        -0.067725      0.038826     -0.002724
Li	      8.35620      6.32213     10.46249         0.018878      0.018559      0.048953
Li	      8.26863      8.36401      8.39548        -0.094295     -0.021164     -0.000863
Li	      6.29179      6.37421      8.42687        -0.000669      0.001927     -0.015870
Sc	      4.20769      6.28015     10.28295         0.267809     -0.019636     -0.150183
Ti	      2.13728      8.25816      6.38255         0.151985     -0.342284      0.067936
Ti	      2.20699      4.20016      2.28054         0.447664      0.004264      0.446008
Ti	      4.17705      2.18268      6.28833        -0.063384     -0.051513     -0.104901
V	      6.31065      4.17595      6.29656        -0.325527      0.061354      0.222683
Cr	      4.19386      6.27922      6.31511         0.063633      0.021857     -0.070985
Cu	      6.28325      4.18785     10.39182        -0.058197      0.034523     -0.041365
Ni	      6.28126      8.33156     10.37371         0.003955     -0.143970     -0.036536
Ni	      6.22927      8.41194      6.36071        -0.057989      0.032726     -0.151041
O	      2.04324      2.21962      1.95218         0.000871      0.138463      0.009369
O	      4.04177      4.18643      2.11105        -0.314985      0.017023      0.024715
O	      4.22969      2.05998      4.36199        -0.130073     -0.004360      0.038918
O	      6.31441      4.16064      4.27316         0.028006      0.085359      0.471350
O	      6.26518      2.14129      6.22811         0.071479     -0.072986      0.089840
O	      8.38363      4.21067      6.29301        -0.267627     -0.060947     -0.043300
O	      2.09465      4.20679      4.15903         0.173978      0.034430     -0.362672
O	      4.19399      6.39322      4.33640        -0.053890     -0.332815      0.031126
O	      4.18446      4.14730      6.29743         0.468409      0.114436     -0.051478
O	      6.33144      6.24815      6.26022         0.001163      0.065035      0.001613
O	      6.43438      4.17084      8.21986         0.042315      0.064916     -0.679400
O	      8.41049      6.17682      8.19934         0.030745     -0.100418      0.009808
O	      2.15287      6.35881      6.34194        -0.042367      0.221632      0.009404
O	      4.08307      8.29060      6.38123        -0.196376      0.021847      0.140812
O	      4.19029      6.24979      8.31248        -0.000852     -0.062861      0.004882
O	      6.27925      8.36983      8.35129         0.058260     -0.039719      0.027420
O	      6.26227      6.20658     10.47934        -0.038643      0.215607      0.036007
O	      8.33212      8.38814     10.65408        -0.053166      0.001289      0.025715
