# total energy = -237.99211853 eV
 
CRYSTAL
PRIMVEC
0.074470 6.281847 6.397123 
6.312537 0.022993 6.448677 
4.215708 4.229282 0.008214 
PRIMCOORD
36 1
Li	      6.30262      0.21218      6.29434         0.039585     -0.058269      0.037781
Li	      8.21881      2.15845      6.34206         0.130122     -0.072045      0.046947
Li	      4.20291      2.10315      2.18022         0.018539     -0.049739     -0.088616
Li	      6.31712      2.02026      4.55759         0.044241     -0.003980     -0.069248
Li	      6.37891      2.10284      8.34807         0.175551     -0.076359     -0.055933
Li	      4.45946      2.08167      6.37234         0.091378     -0.104341     -0.002456
Li	      6.39326      3.97193      6.38973         0.095512     -0.078243     -0.055710
Li	      8.40146      6.39564     10.76013         0.005242      0.097530      0.083239
Li	      6.34159      6.32910      8.68210        -0.110234      0.137317      0.050639
Sc	      4.34079      4.10329      8.52125        -0.447834      0.468904      0.209235
Ti	      8.45402      4.36497      8.47232         0.209098     -0.396267     -0.639677
Ti	      6.43112      6.26333      4.36086        -0.221143     -0.828128     -0.799923
Ti	      6.31088      8.44300      6.41126        -0.541820      0.994127      1.035339
V	      2.01408      0.07113      2.11698         0.520737     -0.047273     -0.368869
Cr	      6.34099      4.26308     10.73149        -0.430110      0.041049      0.254442
Cu	      4.34965      6.30086     10.75551        -0.303124     -0.005794     -0.227086
Cu	      4.25566      4.20929      4.34763         0.185233     -0.112388     -0.173929
Cu	      4.24672      6.32256      6.37728        -0.439093      0.149203      0.498904
O	      2.12283      2.09083      2.29918        -0.001071      0.645120      0.503202
O	      4.30357      4.21646      2.30795        -1.103474      0.031608      0.085613
O	      4.09572      2.07683      4.29847         0.366958      0.134300      0.145330
O	      6.47707      4.31627      4.18664        -0.146276      0.365595      0.787123
O	      6.35277      2.10694      6.45031        -0.216068      0.145194     -0.088865
O	      8.43328      4.23014      6.70511        -0.049756      0.077311      0.576368
O	      2.02621      4.13976      4.31349         0.331033     -0.038904     -0.022259
O	      4.37178      6.38119      4.40006        -0.037813      0.215960     -0.244073
O	      4.08265      4.09030      6.42050         0.253222     -0.128221     -0.085352
O	      6.26998      6.44675      6.29870         0.362364     -0.046848     -0.001993
O	      6.44579      4.21863      8.67993         0.104142      0.069527      0.009046
O	      8.45044      6.22481      8.64782         0.032493     -0.067856      0.068553
O	      2.20779      6.23139      6.46988        -0.084636     -0.491825     -0.608955
O	      4.40131      8.55483      6.32978         0.302113     -0.118071     -0.263709
O	      4.07358      6.26781      8.38780         0.523304     -0.235094     -0.078175
O	      6.38955      8.52171      8.39300         0.079895     -0.472534     -0.423933
O	      6.27932      6.24662     10.67711         0.174050     -0.033525     -0.053955
O	      8.55463      8.46830     10.61665         0.087640     -0.107043     -0.039048
