# total energy = -244.35293308 eV
 
CRYSTAL
PRIMVEC
0.029320 6.241556 6.323374 
6.423513 -0.003519 6.355074 
4.276562 4.176748 0.003819 
PRIMCOORD
36 1
Li	      4.35650     10.35915      6.40669         0.012483     -0.015666     -0.087737
Li	      2.29049      8.24325      6.45273         0.048984     -0.001366      0.018188
Li	      2.06415      6.25186      8.32140        -0.014953     -0.004949     -0.084507
Li	      2.17767      4.11325      2.06594         0.043732     -0.011622     -0.005145
Li	      4.29055      4.17145      4.10439        -0.043125      0.019133     -0.059916
Li	      6.44799      4.16192      6.41303         0.000833     -0.013457     -0.007463
Li	      0.07417      4.18801      4.22397        -0.009942      0.025983      0.044952
Li	      6.37943      8.40827      6.35509         0.004265      0.038304      0.028825
Li	      6.42926      6.17237      8.45547         0.038770      0.010787      0.038964
Sc	      4.35786      6.25645     10.52256         0.041298     -0.165420      0.017870
Ti	      6.48302      8.39412     10.51799         0.134435     -0.006785     -0.087946
Ti	      2.03712      2.23143      4.15604        -0.053201      0.373036     -0.195100
Ti	      8.54138      6.22859      6.45544        -0.051024     -0.000883      0.190421
V	      4.36596      4.15100      8.41252         0.161069     -0.007107      0.025366
Cr	      4.30441      6.29567      6.37064         0.038970     -0.446410      0.078919
Fe	      2.10890      6.15389      4.29905         0.063365      0.035086     -0.177035
Co	      4.30856      6.16643      2.05567         0.086824      0.023176     -0.174479
Cu	      4.31783      8.47869      8.29062         0.079364     -0.025514     -0.204311
O	      2.07675      2.04465      2.27467        -0.142602      0.044942      0.175999
O	      4.28620      4.17432      2.06589        -0.125784      0.095818      0.362507
O	      4.28242      2.11629      4.29306        -0.017545     -0.035244      0.168254
O	      6.48913      4.10392      4.24725        -0.026523      0.019336     -0.045367
O	      6.21874      2.12217      6.22175        -0.073771      0.000107     -0.060481
O	      8.52166      4.35107      6.29837        -0.000022      0.127072      0.070052
O	      2.13422      4.05945      4.18410        -0.019244     -0.552316     -0.034065
O	      4.41795      6.19782      4.34236         0.194527      0.093607     -0.021469
O	      4.26871      4.16151      6.46405        -0.003191     -0.091704     -0.167438
O	      6.51267      6.26591      6.21810         0.003556     -0.018153     -0.028012
O	      6.27867      4.04352      8.52766        -0.286958      0.011536     -0.025245
O	      8.54774      6.23062      8.39467        -0.037182     -0.022915     -0.044323
O	      2.33447      6.25316      6.26788        -0.000561      0.015475      0.214454
O	      4.32015      8.25959      6.36212         0.023240      0.118061     -0.111684
O	      4.36998      6.26313      8.40279        -0.065468      0.063971     -0.038663
O	      6.56164      8.31712      8.63274         0.277492      0.087037      0.167320
O	      6.40429      6.36974     10.57556        -0.120993      0.120842      0.010664
O	      8.44764      8.35319     10.53151        -0.161120      0.096200      0.047631
