# total energy = -245.66561144 eV
 
CRYSTAL
PRIMVEC
0.007990 6.260219 6.271075 
6.477947 -0.005245 6.284562 
4.315049 4.178533 -0.000004 
PRIMCOORD
36 1
Li	      2.26728      6.22676      8.34516         0.017513      0.007611      0.007749
Li	      4.31005      0.02091      4.16480         0.003023      0.033659      0.057535
Li	      6.41391      2.08162      4.17516        -0.057844     -0.025988      0.019797
Li	     10.67510      6.24575      8.30920         0.006643     -0.002843      0.014651
Li	      8.66208      4.26449      8.26878         0.000682     -0.003196      0.060674
Li	      8.56957      6.20804      6.39542        -0.096741     -0.014385     -0.118220
Li	      6.51132      4.26613      6.32299         0.039155      0.006896      0.011162
Li	      4.40481      6.22773      6.37593         0.012585      0.009891     -0.098732
Li	      6.44893      6.27087      8.24444        -0.022555     -0.011453      0.011925
Sc	      8.63011      6.28624     10.34826         0.100063     -0.155235      0.354305
Ti	      8.51319      2.16420      6.42445        -0.213495      0.132866      0.130956
Ti	      4.54678      4.12217      4.17260         0.273828     -0.027971      0.154408
Ti	      6.48420      4.21270     10.33827        -0.153526      0.077515     -0.451913
V	      6.46026      8.29725      6.31977         0.237958      0.097388      0.181128
Cr	      4.34525      8.26317      8.37893         0.107946      0.318479      0.041799
Fe	      4.29899      4.25535      8.28143        -0.049221      0.177727     -0.053848
Co	      6.47526      6.23833      4.20622         0.048504     -0.138316     -0.099402
Ni	      4.29194      4.19177      0.08251        -0.018386      0.036540      0.076864
O	      2.28040      2.04847      2.03500        -0.003609      0.002851     -0.107997
O	      4.27041      4.09829      2.22906         0.029671     -0.028598      0.077872
O	      4.30375      2.18269      4.10717         0.036165      0.132443      0.093517
O	      6.36257      4.13660      4.20918        -0.311060      0.094779     -0.017182
O	      6.67533      2.05037      6.31013         0.236238      0.152658     -0.003818
O	      8.69221      4.03119      6.30873        -0.154643     -0.179527     -0.027799
O	      2.03186      4.19907      4.24185         0.043334     -0.015606     -0.185171
O	      4.30252      6.26364      4.13472        -0.024397     -0.031350      0.025595
O	      4.22511      4.19162      6.09337         0.045406     -0.018358     -0.239653
O	      6.48407      6.34099      6.20494        -0.079484     -0.091888     -0.006200
O	      6.46559      4.18970      8.52543         0.245180     -0.018551      0.201553
O	      8.64732      6.34952      8.38018        -0.066499      0.176005     -0.160189
O	      2.08093      6.26067      6.24582         0.156935      0.085309     -0.058736
O	      4.29451      8.34155      6.31240        -0.052514     -0.130493     -0.006001
O	      4.32073      6.30201      8.39640         0.030630     -0.497674      0.015209
O	      6.40269      8.34749      8.27673        -0.291628     -0.057732      0.088831
O	      6.53585      6.10986     10.53302         0.017583     -0.027925     -0.098068
O	      8.83828      8.33445     10.60098        -0.093441     -0.065527      0.107396
