# total energy = -247.27908996 eV
 
CRYSTAL
PRIMVEC
0.049812 6.203764 6.363349 
6.412339 0.019526 6.393414 
4.276873 4.158042 0.011079 
PRIMCOORD
36 1
Li	      2.25706      8.24425      6.39958         0.051970      0.038262      0.013396
Li	      6.49695     10.28352      8.48411        -0.028670     -0.006847     -0.013969
Li	      4.51275      8.25743      8.43167         0.022859      0.033319     -0.010455
Li	      6.45663      8.30227     10.43820        -0.004740     -0.025137     -0.006337
Li	      2.15243      2.06391      4.23843         0.024817      0.010394      0.003464
Li	      4.25774      2.11579      6.35055        -0.008060     -0.062876     -0.007604
Li	      4.27735      8.32332      4.40724        -0.012924      0.024330      0.012953
Li	      6.36298      8.32660      6.51563         0.006334      0.014635     -0.008837
Li	      8.43907      8.36746      8.52847         0.009854     -0.016829      0.003257
Sc	      2.21451      4.05973      2.07148        -0.027971      0.045630     -0.114056
Ti	      4.26128      3.98477      4.27994        -0.192431     -0.492743      0.018403
Ti	      6.44089      4.10061      6.30542         0.176960     -0.035371      0.074668
Ti	      8.50359      6.40362     10.76474        -0.226910      0.238192      0.042932
V	      4.31037      6.24279      2.16628        -0.116037      0.071797     -0.176120
Cr	      6.45598      6.30813      8.49462         0.095391     -0.201262      0.002123
Fe	      4.30792      6.36760      6.46266         0.020903      0.093735      0.049584
Co	      0.09138      6.15173      6.34191         0.014812      0.039278     -0.066249
Co	      4.31585      6.21476     10.56034        -0.007625     -0.018914      0.100406
O	      1.97457      2.06290      2.16053         0.124701     -0.017117      0.040394
O	      4.29496      4.14963      2.27811         0.006328      0.058597      0.125941
O	      4.26060      2.13541      4.29068        -0.011154      0.489176     -0.052824
O	      6.31797      4.14964      4.37754        -0.009687     -0.018717      0.038807
O	      6.33993      2.18249      6.53357         0.025446      0.133135     -0.030363
O	      8.41631      4.17918      6.33887        -0.163378     -0.020658      0.048544
O	      2.31318      4.20650      4.20289         0.160507     -0.019322      0.013211
O	      4.17567      6.18408      4.20531        -0.010111     -0.046399      0.106240
O	      4.41357      4.21769      6.22958         0.052937     -0.036810     -0.125330
O	      6.36264      6.13425      6.46031         0.080029     -0.115448     -0.023188
O	      6.50117      4.19696      8.36423        -0.026499     -0.025655      0.009032
O	      8.59496      6.22692      8.62755        -0.050412      0.032050      0.037462
O	      2.28511      6.20765      6.25697        -0.101004      0.031939     -0.125229
O	      4.31602      8.25851      6.38363         0.019351      0.038008     -0.017764
O	      4.44327      6.21366      8.50755        -0.003460      0.017976     -0.029830
O	      6.49416      8.22469      8.47794         0.009261      0.065366      0.011788
O	      6.56427      6.21241     10.53115         0.098704      0.044660      0.015089
O	      8.58254      8.25438     10.66225        -0.000095     -0.360375      0.040460
