# total energy = -243.09820993 eV
 
CRYSTAL
PRIMVEC
0.001937 6.414061 6.335540 
6.234342 0.032244 6.306131 
4.158657 4.258804 0.018627 
PRIMCOORD
36 1
Li	      8.26633      2.23885      6.43288         0.043607      0.024681      0.109758
Li	      2.07624      0.07794      2.08545         0.033150     -0.042758      0.011598
Li	      8.30311      4.25383      4.26879         0.024103     -0.039821      0.029136
Li	      0.05660      2.17206      2.11806        -0.049686      0.003646      0.001263
Li	      2.04099      4.19049      2.10039         0.007945     -0.033477     -0.013206
Li	      8.27002      6.38320      6.37623         0.000771     -0.017826      0.060364
Li	      6.38220      4.26784      6.34402         0.089437     -0.010328      0.007778
Li	      0.07041      4.28484      4.17317         0.037455      0.014662     -0.030386
Li	      8.28597      6.40382     10.52340        -0.021231      0.004960     -0.065582
Sc	      4.07791      6.49351      6.31299        -0.099557      0.059843     -0.046139
Ti	     10.29325      4.33334      6.43596        -0.211201      0.013302      0.138408
Ti	      6.27020      2.14839      4.26240         0.243546     -0.049562     -0.066144
Ti	      4.27807      4.21521      8.41186         0.095040     -0.299974      0.003564
V	      4.12990      4.28971      4.11566         0.050552      0.246257      0.113512
Cr	      2.10764      2.13673      4.16686        -0.055784     -0.096607      0.022188
Fe	      6.26111      6.38154      8.46250         0.062740      0.050394      0.050247
Cu	      4.13121      2.12224      2.12085         0.075390     -0.006043     -0.079057
Cu	      2.04643      4.31608      6.28695         0.018186      0.011885      0.009824
O	      2.21012      2.06670      2.20522        -0.200121      0.037277     -0.069511
O	      4.19104      4.36330      2.07932        -0.006865      0.194497     -0.194378
O	      4.18838      2.20834      4.19211        -0.035853      0.013528      0.173101
O	      6.14853      4.23321      4.30823         0.127879     -0.048114      0.009562
O	      6.26711      2.04010      6.21308        -0.027253     -0.003915      0.015571
O	      8.45719      4.26924      6.37129         0.156204      0.016346      0.001053
O	      2.18816      4.14626      4.09489        -0.214238     -0.072041     -0.142166
O	      4.25078      6.35260      4.23033        -0.002543     -0.020725     -0.055255
O	      4.06958      4.34411      6.35081         0.179263     -0.014440      0.010138
O	      6.20808      6.51733      6.23730         0.017369     -0.127344     -0.145779
O	      6.11618      4.25756      8.41264        -0.106862     -0.085231     -0.049902
O	      8.25408      6.60202      8.41871         0.098793      0.144971      0.012421
O	      2.00874      6.34046      6.31901        -0.036564      0.166812     -0.039062
O	      4.18900      8.62779      6.32420        -0.171223      0.029986     -0.097047
O	      4.19701      6.23800      8.37734        -0.138467     -0.215802      0.046324
O	      6.17885      8.55755      8.63892         0.097109      0.079296      0.159161
O	      6.21588      6.58983     10.67214        -0.003835      0.090093      0.111507
O	      8.17874      8.59759     10.40681        -0.077258     -0.018429     -0.002864
