# total energy = -249.22247115 eV
 
CRYSTAL
PRIMVEC
0.037038 6.316618 6.320952 
6.415792 0.011745 6.345971 
4.272534 4.223322 0.012133 
PRIMCOORD
36 1
Li	      8.54818      2.20993      6.35021        -0.003572      0.011170      0.054391
Li	      4.27918      2.10835      2.13446         0.014729     -0.020159      0.017958
Li	      8.46528      4.28361      4.41419        -0.029276      0.056201      0.128520
Li	      2.28628      2.06412      4.24818         0.128234     -0.064528     -0.038089
Li	      4.25933      4.17300      4.25567        -0.003077     -0.029725      0.015969
Li	      4.30229      2.09576      6.23187         0.001664      0.025517      0.039088
Li	      6.49494      4.22289      6.29813         0.003069      0.024910     -0.002020
Li	      2.17873      4.17812      6.27650         0.034505     -0.030439     -0.064747
Li	      4.27585      4.23716      8.41444        -0.020494      0.052880     -0.064110
Sc	      6.45649      6.37368      8.39768        -0.077390     -0.039647     -0.173310
Ti	      6.29161      2.26006      4.29092        -0.394235      0.580012     -0.083305
Ti	      2.17317      6.33364      4.31708         0.109720     -0.132558      0.035257
Ti	      4.37450      6.20397      6.35911         0.214244     -0.591140      0.115240
V	      2.18230      4.13865      2.06613        -0.001823      0.011884     -0.037171
Cr	      6.43608      2.12543      8.40222         0.010959     -0.050208     -0.023644
Fe	      4.28863     10.44998      6.32883         0.016695      0.020551      0.108854
Fe	     10.63909      8.43694     10.61797         0.021749      0.042805     -0.105686
Co	      6.40959      4.23108      2.15026        -0.075620      0.026551      0.201195
O	      2.00776      2.16613      2.16091        -0.019095      0.079240     -0.003254
O	      4.30799      4.33194      2.10954         0.093791      0.016265      0.093556
O	      4.43928      2.11730      4.25419         0.440559     -0.008600     -0.027208
O	      6.46941      4.13683      4.22734        -0.017945     -0.467168     -0.193593
O	      6.41920      2.07287      6.31715         0.039020      0.046513     -0.065529
O	      8.55459      4.24479      6.47139        -0.034072     -0.014810     -0.046725
O	      2.13618      4.37506      4.12656         0.042061      0.241489      0.080532
O	      4.15678      6.29548      4.19486        -0.175462     -0.014186      0.047936
O	      4.27103      4.37233      6.32150         0.033275      0.599240     -0.006220
O	      6.28829      6.35135      6.34134        -0.177038     -0.014035      0.014976
O	      6.46000      4.18716      8.51102        -0.026519     -0.040077     -0.085664
O	      8.61780      6.27116      8.52856        -0.004303      0.072260      0.137163
O	      2.27976      6.32146      6.24942        -0.002118     -0.025111     -0.138343
O	      4.30535      8.38414      6.26976        -0.026570     -0.165984      0.119123
O	      4.33687      6.33518      8.28285        -0.105419      0.016149     -0.207145
O	      6.46089      8.40539      8.59784        -0.031166     -0.127642      0.091886
O	      6.53726      6.39814     10.50363         0.069479      0.113365      0.002241
O	      8.45624      8.29237     10.55335        -0.048559     -0.200985      0.061877
