# total energy = -246.25537892 eV
 
CRYSTAL
PRIMVEC
-0.008154 6.468331 6.219092 
6.341658 -0.021512 6.232105 
4.210281 4.304778 0.002673 
PRIMCOORD
36 1
Li	      2.17772      8.56894      6.27415        -0.034769     -0.009998      0.016616
Li	      2.18610      6.36352      8.23840         0.008422      0.003031      0.068835
Li	      4.32870      8.48689      8.22621        -0.005431     -0.028891      0.028781
Li	      6.30540      6.49539      4.22274        -0.018587     -0.019681     -0.073168
Li	      4.14301      4.33861      4.23671         0.038609      0.057637     -0.094497
Li	      6.14518      4.41939      6.21748         0.041792     -0.035986     -0.066326
Li	      2.17379      6.35419      4.21477        -0.056195     -0.005703      0.026313
Li	      6.38691      8.58997      6.30975        -0.094482      0.090391     -0.027208
Li	      4.12747      4.36235      8.16232         0.029201      0.047726      0.093068
Sc	      6.37066      8.58906     10.39025         0.075071      0.131356      0.074264
Ti	      8.33879      4.35692      4.23589        -0.422139      0.029889      0.050021
Ti	      6.33594      2.12965      8.24471         0.130107     -0.098950     -0.170347
Ti	      2.12962      4.27465      2.12085         0.123710     -0.150712      0.100966
V	      4.15176      6.41038      6.21520        -0.188791      0.249471     -0.023687
Cr	      6.33708      6.45142      8.24455        -0.169466      0.007205     -0.080315
Fe	      0.15911      6.38438      6.25018         0.048140      0.061335      0.140124
Fe	      4.15721      8.60713      4.24659        -0.015022     -0.246868      0.039736
Cu	      4.05948      2.46190      6.07458        -0.013636      0.048494     -0.145761
O	      1.93335      2.32606      2.08527        -0.097737      0.138820      0.004487
O	      4.09724      4.47844      2.16356        -0.140921      0.107375      0.076386
O	      4.28299      1.95629      4.08515        -0.022413     -0.127361      0.072050
O	      6.47230      4.21389      4.14605         0.314851     -0.007518      0.000883
O	      6.38006      2.12480      6.35092        -0.010178      0.045481      0.223062
O	      8.60824      4.21890      6.20744        -0.113682     -0.080002      0.041079
O	      2.00128      4.29817      3.99638         0.054442      0.059645     -0.169143
O	      4.14805      6.60277      4.04946        -0.012372     -0.148193     -0.082326
O	      4.19450      4.47341      6.17408        -0.013482     -0.049172      0.044214
O	      6.16985      6.43600      6.29395         0.231774      0.017656     -0.133842
O	      6.42148      4.27407      8.29539        -0.004849      0.062024     -0.037468
O	      8.45386      6.27561      8.30538        -0.016860     -0.014172      0.000509
O	      2.12974      6.46323      6.25727         0.274018      0.035448     -0.029819
O	      4.21810      8.51516      6.17758         0.018855     -0.059323      0.125349
O	      4.32187      6.43750      8.37342        -0.006449     -0.030875      0.058785
O	      6.36635      8.43160      8.36156         0.012444     -0.023792     -0.016901
O	      6.28970      6.40445     10.30970         0.055024     -0.051287     -0.113988
O	      8.48046      8.78101     10.38437         0.001000     -0.004500     -0.020732
