# total energy = -246.18610220 eV
 
CRYSTAL
PRIMVEC
0.044633 6.344216 6.355123 
6.257980 0.036757 6.362935 
4.190059 4.252413 0.006682 
PRIMCOORD
36 1
Li	      2.14619      8.43655      6.32530         0.001389     -0.007115     -0.048173
Li	      2.10752      0.02154      2.13743        -0.003186     -0.001377      0.011687
Li	      6.43594      8.44077     10.51388         0.062118     -0.060580     -0.014184
Li	      0.04156      2.14556      2.17086         0.027181      0.020016     -0.012052
Li	      2.05672      2.15736      4.16219        -0.035541     -0.019523     -0.024848
Li	      8.35965      6.47614     10.47869        -0.012964      0.084627     -0.080353
Li	      6.25882      8.52573      6.38303        -0.001294      0.061512      0.054514
Li	      8.31433      8.43723      8.62757        -0.063053     -0.051385      0.002265
Li	      6.32468      6.42059      8.56783        -0.034504     -0.018351      0.057173
Sc	      8.31277      6.47543      6.43560        -0.040482     -0.045736      0.016562
Ti	      4.25046      2.10423      2.23437         0.314188     -0.208875      0.084706
Ti	      6.31543      4.20976      6.37000        -0.049629     -0.017231     -0.033855
Ti	      4.10632      6.43241      6.30507        -0.169344      0.091014     -0.017393
V	      0.18385      6.35595      6.29051         0.021570      0.073101     -0.090315
Cr	      2.09695      4.22954      2.16160         0.006684      0.023390     -0.043351
Fe	      8.36894     10.48104     10.55789         0.014288      0.148024     -0.065606
Fe	      4.15097      4.28055      4.20446         0.041776      0.019726     -0.005069
Ni	      6.28499      4.27511     10.52791         0.037362     -0.003859     -0.046886
O	      2.23082      2.22984      2.11988         0.062029      0.018517     -0.018034
O	      4.14365      4.16926      2.00376        -0.004602     -0.044539      0.018456
O	      4.17130      2.04606      4.18839        -0.039050      0.051610     -0.136813
O	      6.18209      4.25965      4.42337         0.063543     -0.029375      0.231590
O	      6.24649      2.22429      6.35876        -0.000239      0.112039      0.022915
O	      8.35512      4.32795      6.43371        -0.085851     -0.016644      0.058843
O	      2.14185      4.23394      4.14656        -0.031960     -0.022794     -0.022860
O	      4.20950      6.42071      4.41998         0.006577     -0.088040      0.181407
O	      4.28447      4.32954      6.43320         0.024193      0.029391      0.013361
O	      6.22994      6.22699      6.37043        -0.063862     -0.049376     -0.003668
O	      6.35520      4.23399      8.37686         0.043925     -0.030094     -0.232083
O	      8.36369      6.30415      8.41607         0.020008     -0.032408     -0.001860
O	      2.17636      6.35805      6.37338         0.225372      0.002691      0.010956
O	      4.25816      8.40889      6.39457         0.001969     -0.071503      0.114252
O	      4.17984      6.50786      8.33735         0.032641      0.204368     -0.078837
O	      6.15303      8.52032      8.47966        -0.337923     -0.033620      0.036495
O	      6.31117      6.32627     10.73895         0.065271      0.139697      0.015777
O	      8.45094      8.54895     10.56512        -0.098597     -0.227301      0.045280
