# total energy = -249.74993842 eV
 
CRYSTAL
PRIMVEC
-0.019592 6.411624 6.342448 
6.358211 0.004598 6.318131 
4.221385 4.240810 0.020458 
PRIMCOORD
36 1
Li	      6.28838      6.43618     12.57533         0.023004      0.008765     -0.031292
Li	      8.44073      2.20253      6.22810        -0.032921      0.024670     -0.108712
Li	      8.45910      4.15910      4.34995        -0.002116     -0.015478      0.003151
Li	      6.33178      2.24217      8.49354        -0.028893      0.059149      0.139885
Li	      6.15688      6.44369      4.33694        -0.054261      0.065398     -0.000412
Li	      6.38754      4.24137      6.34895         0.002600     -0.018321      0.027686
Li	      4.25003      8.39022      4.32943         0.036378     -0.077754     -0.022468
Li	      2.09800      4.22705      6.20697         0.019717      0.035395     -0.073957
Li	      4.25904      6.41870      6.20607         0.027194     -0.027105      0.019124
Sc	      6.32026      6.30686      8.44563         0.012235     -0.076615      0.031164
Ti	      2.08422      6.48174      8.35233         0.052988      0.131987     -0.286761
Ti	      4.16773      8.56874      8.26981        -0.005439      0.018445     -0.369159
Ti	      4.22164      2.11058      6.18992        -0.120303     -0.053582     -0.033458
V	      6.36235      2.13148      4.30815         0.149178      0.000298     -0.097207
Cr	      2.10197      4.24660      2.13605         0.001448     -0.091891      0.035085
Fe	      4.20163      4.31435      4.36568        -0.013518      0.011748     -0.017255
Fe	      2.18234      6.40858      4.36922        -0.028050     -0.008097     -0.061094
Fe	      4.31617      4.24696      8.47585        -0.061733      0.041628      0.023863
O	      2.21237      2.08584      2.11909         0.115984     -0.105411     -0.052222
O	      4.24890      4.13216      2.09069         0.055076     -0.116597     -0.037578
O	      4.24809      2.08145      4.25747        -0.007690     -0.056751      0.194680
O	      6.26163      4.14379      4.04401         0.081160     -0.035818     -0.012891
O	      6.25308      2.16260      6.24415        -0.082964     -0.017184      0.064215
O	      8.46977      4.38176      6.42517         0.018398      0.138453     -0.035399
O	      2.16933      4.26530      4.13032        -0.143181     -0.230523     -0.002123
O	      4.17418      6.39005      4.28421         0.140572      0.104761     -0.065091
O	      4.26090      4.10974      6.48477        -0.050121     -0.146130     -0.033653
O	      6.47945      6.40381      6.38333         0.102209     -0.017736      0.002191
O	      6.46764      4.28637      8.46805         0.044061      0.030517     -0.029714
O	      8.44498      6.25606      8.34466        -0.008208     -0.001936     -0.052201
O	      2.08461      6.40840      6.53156        -0.044175     -0.007834      0.421748
O	      4.21595      8.54176      6.49669         0.002403      0.012465      0.275047
O	      4.12660      6.54035      8.44461        -0.032276      0.100945     -0.037560
O	      6.19107      8.58990      8.51065        -0.069054      0.037748      0.028283
O	      6.40690      6.54483     10.49791        -0.031798      0.040286      0.007236
O	      8.40275      8.56426     10.48274        -0.067908      0.242104      0.186850
