# total energy = -99.22853710 eV
 
CRYSTAL
PRIMVEC
0.000019 2.074639 2.074574 
17.184736 0.000030 0.000234 
-0.000013 2.074355 -2.074290 
PRIMCOORD
16 1
Li	      0.35985      0.00084      0.00055        -0.015437     -0.000018      0.000143
Li	      2.36263      2.07528      0.00086        -0.068136      0.000718      0.000739
Li	      6.21682      2.07532      0.00099         0.043252      0.000510      0.000527
Li	     12.86269      0.00072      0.00069        -0.018161     -0.000474     -0.000498
Ti	     10.86660      2.07526      0.00101         0.116359     -0.000483     -0.000546
Ti	     15.06773      2.07511      0.00064         0.845266      0.000886      0.000644
Ni	      4.25439      0.00085      0.00090         0.101225     -0.000797     -0.000968
Ni	      8.37105      0.00082      0.00087         0.069831     -0.000833     -0.001193
O	     12.76048      2.07513      0.00078        -0.170588     -0.000192     -0.000065
O	     14.82115      0.00073      0.00056        -0.010816      0.000238      0.000301
O	      8.88156      2.07523      0.00090         0.182377     -0.001002     -0.000172
O	     10.81197      0.00072      0.00082         0.029328      0.001452      0.000798
O	      4.30760      2.07534      0.00102        -0.007336      0.000258      0.000247
O	      6.47643      0.00077      0.00079        -0.199432     -0.000421     -0.000401
O	     16.82087      2.07520      0.00080        -0.856082     -0.000263     -0.000158
O	      2.20552      0.00086      0.00082        -0.041649      0.000422      0.000603
