# total energy = -245.07881383 eV
 
CRYSTAL
PRIMVEC
-0.016082 6.285879 6.235122 
6.349866 -0.027561 6.246979 
4.226202 4.191208 -0.011447 
PRIMCOORD
36 1
Li	      6.27970      6.27909     12.25166        -0.152269      0.074283      0.060844
Li	      4.30149      0.00917      4.21560         0.046625      0.075658      0.128127
Li	      6.30235      2.01464      4.21193        -0.104512     -0.048992      0.118221
Li	      6.35212      6.01208      4.18331         0.217168      0.082331      0.108287
Li	      4.47370      4.15442      4.19920        -0.077255     -0.136134      0.056248
Li	      6.37050      4.14788      6.07111         0.051435     -0.014064      0.180414
Li	      6.28709      4.42742     10.39294        -0.026303      0.028139     -0.032584
Li	      8.20050      6.31518     10.42388        -0.089230      0.024176     -0.094949
Li	      6.31865      6.26845      8.55623         0.047386     -0.010421     -0.088519
Sc	      4.29915      2.04842      2.23720         0.024134      0.095729      0.269382
Ti	      8.30326      8.37450     12.29571        -0.400142      0.437242     -0.250875
Ti	      2.05647      4.24099      2.19293        -0.036856      0.480996     -0.378889
Ti	      2.09729      4.11695      6.08328         0.227415     -0.571614     -0.242245
V	      4.24592      6.25430      2.21986        -0.499053     -0.044806     -0.186458
Cr	      4.23782      6.28846      6.11741         0.278700     -0.092851      0.054862
Cr	      4.21808      4.21370      8.34710         0.235958     -0.303806      0.056647
Co	      4.23151      1.98386      6.11972         0.406683     -0.125637      0.231739
Cu	      6.36987      4.12470      2.33448         0.087430     -0.080903     -0.027408
O	      2.13262      2.27171      2.00168        -0.256329     -0.243801      0.125327
O	      3.97960      4.21356      2.09257        -0.034596     -0.151572      0.093406
O	      4.23186      2.09543      4.17360        -0.111692     -0.001263     -0.384731
O	      6.37557      4.12403      4.23196        -0.028693     -0.003081     -0.356456
O	      6.47020      2.00329      6.37079         0.670373      0.009757     -0.000537
O	      8.42713      4.03610      6.37783         0.017169     -0.459343     -0.054227
O	      2.05284      4.26935      4.14556         0.009752     -0.002832      0.124810
O	      4.25099      6.24876      4.13246         0.030120     -0.076428     -0.334898
O	      4.10206      4.24984      6.30903        -0.125086      0.286739     -0.043466
O	      6.30684      6.43333      6.13089        -0.462778      0.405498     -0.086776
O	      6.31884      4.05763      8.32598         0.060997      0.206816      0.072541
O	      8.49113      6.25875      8.22077         0.202928      0.085141      0.495935
O	      2.23594      6.40010      6.22565        -0.005803     -0.131063      0.106964
O	      4.30478      8.31828      6.24667        -0.038442      0.024823     -0.034462
O	      4.33860      6.20639      8.13767        -0.120896      0.073507     -0.006079
O	      6.40403      8.33781      8.08836        -0.060365      0.151500      0.134534
O	      6.29861      6.31670     10.40180         0.012805     -0.007573     -0.040941
O	      8.43928      8.37596     10.43399         0.003223     -0.036151      0.226213
