# total energy = -247.61947021 eV
 
CRYSTAL
PRIMVEC
0.017126 6.334293 6.191508 
6.341969 0.011733 6.196845 
4.236680 4.235070 -0.000775 
PRIMCOORD
36 1
Li	      6.31706      0.05525      6.14754         0.000036      0.137498     -0.043119
Li	      8.39788      2.17498      6.14253        -0.243663      0.105395     -0.092961
Li	      4.29063      6.33813     10.33269         0.085367     -0.013464     -0.004001
Li	      6.31222      2.11297      4.19027        -0.049370     -0.038224      0.102892
Li	      6.36761      6.30159      4.16680        -0.071309     -0.055674      0.016026
Li	      4.30120      4.20045      4.14802         0.041669      0.032833     -0.019996
Li	      4.28126      6.31745      6.19254         0.022452     -0.022952     -0.087493
Li	      4.26484      4.29414      8.26825         0.112910      0.104563      0.041465
Li	      6.28987      6.33326      8.28647        -0.039510     -0.124805      0.092151
Sc	      8.43758      6.45631     10.35270         0.199956      0.201478     -0.170337
Ti	      6.41888      4.26384      2.16605        -0.133432      0.185200      0.530537
Ti	      8.46827      4.21085      8.20735        -0.385876      0.183145     -0.417994
Ti	      6.38733      8.39249      6.20140         0.036103     -0.209472      0.131298
V	     10.54650      8.50081     10.34610        -0.214945     -0.187650     -0.111782
Cr	      4.23066      2.10963      2.12549         0.391715     -0.309047      0.146579
Cr	      4.25999      2.11819      6.12058         0.257040      0.001848     -0.004543
Co	      0.03745      2.08359      2.04509         0.127921     -0.104620      0.105911
Ni	      6.30517      4.24470      6.11095        -0.063534     -0.026218      0.056234
O	      2.19700      2.11043      2.03414         0.369773      0.129419     -0.080099
O	      4.19359      4.16078      2.07475        -0.116142     -0.359336     -0.022733
O	      4.23581      2.11543      4.12152        -0.048608     -0.024116     -0.164061
O	      6.32205      4.25236      4.03128        -0.014397      0.084608     -0.676746
O	      6.25135      2.20012      6.19687        -0.129078     -0.094842     -0.384361
O	      8.41733      4.30401      6.27805         0.138302     -0.026872      0.391092
O	      2.07348      4.24711      4.13627         0.015705      0.014838     -0.000731
O	      4.20642      6.46205      4.11696        -0.030624      0.094650      0.408804
O	      4.15015      4.14646      6.19591        -0.304169      0.020503      0.054237
O	      6.43569      6.42218      6.19060        -0.023913      0.351199      0.026454
O	      6.46711      4.23246      8.25171         0.157676      0.050206     -0.035382
O	      8.46863      6.22864      8.20585        -0.026932     -0.277873      0.012442
O	      2.13326      6.20869      6.25981         0.024186     -0.201731      0.107541
O	      4.40751      8.43122      6.25210         0.253920     -0.044781      0.175174
O	      4.12363      6.41854      8.25195        -0.344878      0.240284      0.011028
O	      6.29986      8.55113      8.18856        -0.139214      0.111148     -0.125523
O	      6.40100      6.24298     10.33112         0.044390      0.087407     -0.005790
O	      8.55706      8.45387     10.31920         0.100471     -0.014546      0.037787
