# total energy = -248.95179790 eV
 
CRYSTAL
PRIMVEC
0.035586 6.274955 6.324745 
6.455504 -0.044119 6.404132 
4.269536 4.202331 0.004597 
PRIMCOORD
36 1
Li	      8.35557      2.22434      6.46146         0.036727     -0.039450     -0.022420
Li	      6.48511      2.01386      4.46624        -0.000111      0.044156     -0.039814
Li	      6.36511      2.18401      8.27983        -0.017800     -0.067771      0.087041
Li	      8.46749      4.20654      8.27156         0.020459     -0.018288      0.033190
Li	      2.21817      2.04978      4.15094         0.016641      0.070154     -0.012140
Li	      8.75475      6.15049      6.57956         0.001274      0.011131     -0.000433
Li	      6.63862      3.96418      6.58313         0.000827      0.060895     -0.047529
Li	      8.72278      8.21341      8.50113         0.031827      0.028469      0.033219
Li	      6.62152      6.14168      8.49411         0.022056     -0.013207     -0.019296
Sc	      6.45200      4.18854     10.45223        -0.052259     -0.077754     -0.024516
Ti	      4.41671      4.12397      4.25338         0.024138     -0.131928      0.014438
Ti	      6.48083      8.29772      6.43108         0.000725     -0.168071     -0.002379
Ti	      4.38969      6.21548      6.37037         0.132076      0.018771      0.014691
V	      8.57703      6.31463     10.49529         0.062817     -0.011322      0.077475
Cr	      2.12235      0.05734      2.11540         0.048998      0.044024     -0.015249
Cr	      4.22481      2.10690      2.13914        -0.010265     -0.068853     -0.028288
Co	      6.31793      0.13299      6.37473        -0.066538      0.053685     -0.110871
Co	      8.51543      4.15449      4.36001         0.043282      0.033451     -0.017075
O	      2.26959      2.00992      2.11752        -0.004952      0.034952     -0.021530
O	      4.36308      4.12022      2.24046        -0.010369      0.078257     -0.031873
O	      4.25170      2.18436      4.13566        -0.003245      0.114424     -0.024209
O	      6.29922      4.20546      4.15220        -0.058005      0.032247     -0.041319
O	      6.44329      2.05197      6.39264        -0.008716     -0.019495      0.062632
O	      8.60757      4.17560      6.31424        -0.095531      0.032500      0.081739
O	      2.22644      4.28184      4.40066        -0.006154     -0.058992      0.044610
O	      4.25247      6.22740      4.36546         0.002240     -0.038262      0.068988
O	      4.18654      4.18221      6.28737        -0.032652      0.055484     -0.017259
O	      6.29934      6.36689      6.39043        -0.133454      0.073986      0.054228
O	      6.47708      4.14465      8.53314        -0.014956      0.019134      0.009614
O	      8.60523      6.23266      8.62147         0.000502      0.005632     -0.077541
O	      2.27202      6.18115      6.37728         0.088703     -0.074843      0.030695
O	      4.44010      8.28927      6.38500         0.047154     -0.037255      0.007453
O	      4.19120      6.33699      8.41679        -0.029117     -0.008573     -0.031038
O	      6.35505      8.47466      8.32671        -0.031338      0.004212     -0.072935
O	      6.49733      6.23188     10.58880        -0.054122      0.002775      0.058037
O	      8.65315      8.30115     10.61300         0.049136      0.015727     -0.020338
