# total energy = -245.52163633 eV
 
CRYSTAL
PRIMVEC
-0.022283 6.306642 6.236497 
6.294663 -0.006607 6.220636 
4.206557 4.203994 -0.014428 
PRIMCOORD
36 1
Li	      6.30512      6.24141     12.32831        -0.011258     -0.039016      0.087607
Li	      4.39270      6.31678     10.36150         0.036535     -0.006300      0.031644
Li	      6.28342      8.21169     10.38687         0.012745      0.045319     -0.003592
Li	      8.22085      4.24192      8.36146        -0.082529     -0.021376     -0.041882
Li	      4.12163      4.27785      4.19011         0.012661     -0.062186     -0.010899
Li	      6.34010      4.30055     10.28842        -0.012445     -0.034877      0.038440
Li	      2.11180      4.15368      6.15048        -0.009112     -0.012972      0.022361
Li	      4.24483      6.26087      6.18114        -0.001695      0.038861      0.039763
Li	      6.29828      6.18840      8.42468        -0.004001      0.012545     -0.042698
Sc	      8.38345      6.28151      6.21150         0.057856     -0.063624     -0.062001
Ti	      8.32742      8.46564     12.32931         0.021720      0.138874     -0.043873
Ti	      6.26219      4.21600      2.14444        -0.173280     -0.073802      0.225371
Ti	      4.27457      8.37727      8.27268        -0.023112      0.154499     -0.095873
V	      1.96536      2.21534      4.14045         0.106314      0.016817      0.000847
Cr	      2.06256      6.23326      4.18216        -0.012788     -0.037832      0.016324
Cr	      4.22151      4.22481      8.32017        -0.125597      0.110784      0.061370
Cu	     10.39041      6.27272      8.32973        -0.063148     -0.182828     -0.050031
Ni	      6.26646      4.24512      6.22222         0.034625      0.008913     -0.175106
O	      2.26635      2.03472      2.00949         0.128025      0.029128      0.019071
O	      4.35877      4.02349      2.05676         0.096293      0.042498     -0.009240
O	      4.10602      2.08354      4.06986         0.060613      0.018262      0.007073
O	      6.28122      4.34198      4.02649        -0.033646     -0.083597     -0.240821
O	      6.40487      2.14570      6.17316         0.052845     -0.138405      0.033498
O	      8.38374      4.10583      6.22444         0.110747     -0.103879     -0.023419
O	      2.08237      4.20929      4.12781         0.028245      0.129273      0.011685
O	      4.19988      6.27857      4.19475        -0.128498      0.020424     -0.068252
O	      4.20758      4.13900      6.34023        -0.155649      0.062021     -0.035781
O	      6.34116      6.29719      6.14905        -0.045815      0.106660      0.003525
O	      6.15519      4.25399      8.24920         0.066755     -0.043548      0.152637
O	      8.29373      6.40482      8.34853        -0.033638     -0.037740      0.029441
O	      2.06859      6.45969      6.27593         0.022588      0.006294     -0.041870
O	      4.05327      8.39338      6.38853         0.007217      0.021371      0.118068
O	      4.09418      6.32534      8.33232         0.057540     -0.043720     -0.015464
O	      6.26841      8.53674      8.30032         0.033275      0.016093      0.020506
O	      6.41101      6.28565     10.39688        -0.025910     -0.016138      0.000974
O	      8.40679      8.32286     10.41524        -0.004477      0.023204      0.040597
