# total energy = -250.01592577 eV
 
CRYSTAL
PRIMVEC
-0.002920 6.267635 6.465334 
6.341164 0.033583 6.429102 
4.256691 4.183297 -0.006740 
PRIMCOORD
36 1
Li	     10.44316      4.33758      6.53359        -0.035195     -0.047401      0.065988
Li	      2.07534      2.15924      0.16491         0.035287      0.017987     -0.028102
Li	      2.10412      0.26270      2.12151         0.025866     -0.099421     -0.019704
Li	      4.05079      2.05418      2.17036         0.092072      0.033702      0.015729
Li	      8.47851      4.24410      4.42935         0.050126      0.008576      0.000226
Li	      0.21040      2.03314      2.01167        -0.037389      0.087681     -0.137984
Li	      2.16476      2.04912      4.05853         0.023494      0.023713      0.056950
Li	      8.59291      6.15623      6.43844         0.056342      0.040548     -0.022073
Li	      8.49194      6.31658     10.70896        -0.025055     -0.049141     -0.001409
Sc	      8.47846      8.29074      8.59308         0.011982     -0.059643     -0.000978
Ti	      4.30822      4.15300      4.12811         0.149494     -0.205883     -0.354541
Ti	      4.25262      8.37004      4.36023         0.027273      0.067207     -0.061463
Ti	      2.02502      4.27037      6.39000        -0.051736      0.188260     -0.082896
V	      6.37511      2.08688      4.36630        -0.054871     -0.011777      0.141522
Cr	      4.20227      6.30023      6.47598        -0.021133     -0.045845      0.034501
Cr	      6.33891      6.26181      8.59728         0.010849     -0.054518      0.026014
Fe	      6.53348      4.17606      6.40634        -0.062378      0.073199      0.054533
Co	      8.50686      4.15027      8.46014        -0.040974      0.087047      0.189092
O	      2.12970      2.16225      2.14469         0.076384      0.493589     -0.117281
O	      4.25845      4.25666      2.31896        -0.140048     -0.006706      0.214385
O	      4.33784      2.24845      4.27946         0.033941      0.203548     -0.046681
O	      6.22075      4.19151      4.28916        -0.274937      0.038420     -0.117574
O	      6.35311      2.10234      6.28831         0.040681     -0.153954     -0.059076
O	      8.47161      4.24531      6.41633         0.125835     -0.095969      0.131531
O	      2.14253      4.16635      4.40845        -0.035149     -0.005956      0.250368
O	      4.24175      6.33037      4.44095        -0.037897      0.011956      0.047539
O	      4.15631      4.26644      6.41223        -0.027571      0.053698      0.001848
O	      6.24147      6.38138      6.57599        -0.095853      0.158424      0.017433
O	      6.30664      4.21116      8.70408         0.073027      0.028530      0.061510
O	      8.35433      6.24805      8.58023        -0.010179     -0.274978     -0.102082
O	      2.18174      6.13213      6.50610         0.032612     -0.271167      0.002647
O	      4.28306      8.32746      6.39060         0.077712     -0.022584     -0.061977
O	      4.30967      6.23854      8.47628        -0.017069     -0.048287     -0.006196
O	      6.38508      8.26697      8.61004        -0.016187      0.004143     -0.041607
O	      6.34970      6.18860     10.65346        -0.016256     -0.148928     -0.038288
O	      8.48931      8.37377     10.66903         0.056901     -0.018071     -0.011906
