# total energy = -247.83360987 eV
 
CRYSTAL
PRIMVEC
0.014482 6.331406 6.216774 
6.426870 0.016043 6.215054 
4.316749 4.251459 -0.020710 
PRIMCOORD
36 1
Li	      4.30090      8.43975      8.25507         0.065760     -0.031761      0.030286
Li	      4.33592      6.35222     10.32245         0.011496      0.038812     -0.011789
Li	      6.31894      6.38614      4.16222        -0.109781     -0.035095     -0.034118
Li	      4.27739      4.39213      4.13890         0.041509      0.027823      0.005816
Li	      6.41941      4.27140      6.15931        -0.030229     -0.061508     -0.035013
Li	      4.36301      8.38248      4.14749         0.003011     -0.065673     -0.031631
Li	      2.29709      6.29796      4.13435         0.108463      0.020335     -0.008848
Li	      4.31896      6.38675      6.03853        -0.019667      0.006145     -0.074627
Li	      6.42958      6.31971      8.34770        -0.049177     -0.007980      0.079833
Sc	      6.42311      8.39628     10.35627        -0.115403      0.069901      0.066676
Ti	      6.43829      4.33768      2.12646        -0.108167      0.119534      0.531436
Ti	      8.38840      6.32687      6.18109        -0.269141      0.005749     -0.320659
Ti	      4.44806      4.29230      8.34160         0.319888      0.104377      0.026258
V	      2.07325      4.24154      6.12537        -0.062936     -0.021607      0.031357
Cr	      2.25753      8.44709      6.16227        -0.010248      0.094670     -0.027820
Cr	      2.14335      4.24522      2.19943         0.020565     -0.037420     -0.048543
Fe	      6.44828      6.29537     12.35119         0.023273      0.090247      0.042834
Cu	      4.32734      6.35839      2.14808         0.031814      0.016092     -0.159745
O	      2.29943      2.04008      1.94936         0.280652      0.097890     -0.010752
O	      4.49072      4.23391      1.99461         0.050524     -0.189132      0.090444
O	      4.34878      2.09999      4.32836        -0.021215      0.005282      0.355672
O	      6.46688      4.23332      3.99622        -0.006454      0.047640     -0.467033
O	      6.55215      2.18095      6.25259         0.164231      0.082654     -0.158066
O	      8.55717      4.27591      6.32853        -0.029024      0.055421      0.094776
O	      2.17435      4.24110      4.20687        -0.001717     -0.000321     -0.088206
O	      4.33170      6.35114      4.03704        -0.019153      0.030998      0.375541
O	      4.17738      4.09457      6.32728        -0.076798     -0.118189      0.128145
O	      6.54601      6.38720      6.19389         0.196927     -0.049016     -0.024353
O	      6.28297      4.28017      8.27384        -0.257016      0.169594     -0.012402
O	      8.54168      6.45376      8.17015        -0.306630     -0.189441     -0.075106
O	      2.20511      6.41054      6.27262         0.095843      0.008543      0.044469
O	      4.32726      8.42467      6.19788         0.049932     -0.116216     -0.013388
O	      4.18681      6.17444      8.26861        -0.041161     -0.170925      0.010351
O	      6.51229      8.58778      8.22231         0.045312      0.050057     -0.026939
O	      6.40821      6.41193     10.36575        -0.017186     -0.028117     -0.195428
O	      8.56167      8.48608     10.30950         0.041904     -0.019364     -0.089428
