# total energy = -245.61813942 eV
 
CRYSTAL
PRIMVEC
0.000843 6.314079 6.316572 
6.286560 0.009214 6.308088 
4.174721 4.187435 0.022434 
PRIMCOORD
36 1
Li	      4.18391     10.31692      6.35708         0.013151     -0.053358     -0.041769
Li	      2.23871      8.40661      6.30997        -0.040776      0.017099     -0.048733
Li	      4.17880      8.41088      8.26837        -0.004591     -0.019156      0.027226
Li	      4.19103      6.28098      2.19446        -0.014993      0.029008      0.013054
Li	      4.13597      4.23324      4.24813         0.000120      0.014153      0.011790
Li	      4.19876      8.34726      4.33218         0.027314      0.016735     -0.032532
Li	      6.20674      8.36067      6.34289         0.013809      0.008081      0.007520
Li	      8.31381      8.41275      8.43613        -0.024173      0.026600      0.013555
Li	      6.30219      6.31193      8.40158         0.006459     -0.020679      0.007901
Sc	      6.21820      4.21411      6.34510         0.022970     -0.019578      0.058233
Ti	      6.17112      4.18694      2.03666        -0.097396     -0.068456     -0.065833
Ti	      6.20793      8.30634     10.53090         0.022049     -0.135336      0.062474
Ti	      2.09159      4.15956      2.11529        -0.089363      0.038821      0.034068
V	      4.25766      6.27769     10.50931        -0.024065     -0.044468      0.009568
Cr	      2.14137      6.29342      4.21073        -0.007534      0.004554      0.029145
Cr	      4.19130      6.38298      6.35442         0.035722     -0.030437     -0.008531
Ni	      2.07806      2.17685      4.20538         0.005927      0.003256      0.039519
Ni	      8.33843      6.37961      6.39085        -0.020408     -0.017764      0.081007
O	      2.08795      2.13244      2.16894         0.015713     -0.001648     -0.154846
O	      4.25240      4.22195      2.07721         0.077408     -0.001238      0.007958
O	      4.20458      2.07586      4.28989         0.210310      0.066028     -0.111255
O	      6.29339      4.17811      4.14508        -0.074034     -0.099536     -0.025241
O	      6.22097      2.16282      6.14693         0.130367     -0.006884     -0.143225
O	      8.39286      4.23696      6.41261        -0.020776     -0.098715      0.127962
O	      2.15058      4.25808      4.06544        -0.030845      0.113343     -0.074292
O	      4.13055      6.30999      4.34390        -0.054357     -0.011273     -0.037044
O	      4.19966      4.25552      6.38939        -0.004161      0.145519     -0.031164
O	      6.24611      6.31766      6.28646        -0.087905     -0.028930      0.136986
O	      6.47396      4.19821      8.37949         0.152186      0.009747      0.003515
O	      8.43092      6.17288      8.50125        -0.010034     -0.034626      0.057438
O	      2.14365      6.32473      6.37269        -0.013637     -0.024616      0.058212
O	      4.20035      8.32160      6.30537         0.005586      0.008894      0.005933
O	      4.02348      6.33503      8.39505        -0.062707     -0.001309     -0.092779
O	      6.21044      8.57835      8.56466         0.001505      0.102910      0.048184
O	      6.36778      6.39365     10.47217         0.024223      0.161708      0.022578
O	      8.22182      8.32964     10.50669        -0.083062     -0.048449      0.003420
