# total energy = -213.50771924 eV
 
CRYSTAL
PRIMVEC
-0.036399 6.328615 6.222413 
6.280401 -0.038793 6.224592 
4.164897 4.198448 -0.003717 
PRIMCOORD
36 1
Li	      6.15316      0.02220      6.09328        -0.048171      0.115400     -0.097269
Li	      8.34153      8.43225     12.29990        -0.030749      0.055834      0.005182
Li	      8.41200      4.09875      4.30535         0.035671     -0.111227      0.038949
Li	      6.32969      2.06103      4.30259         0.052109      0.024179      0.028562
Li	      8.34635      4.14560      8.18294        -0.003640      0.025398     -0.044025
Li	      6.36543      4.13471      6.16164         0.060769     -0.062251     -0.049378
Li	      4.12288      8.44522      4.20083        -0.006421      0.017117      0.037714
Li	      2.03252      6.35296      4.27868        -0.029752     -0.003075      0.011847
Li	      2.02094      4.20718      6.16898         0.002947     -0.015843     -0.027441
Sc	      2.05774      0.02400      2.05458         0.078518     -0.046876      0.044815
Sc	      8.34193      8.31098      8.43180         0.002345     -0.090602      0.062554
Cr	      4.08582      4.21908      4.19093        -0.061727      0.116039      0.287624
Cr	      6.26082      6.22163      8.36781         0.084680     -0.076278      0.166159
Co	      4.15422      6.34360      6.20801        -0.042577     -0.161392     -0.102447
Cu	      4.15769      2.12264      2.04720        -0.075808      0.064888      0.130240
Ni	      6.28162      2.11727      8.25371         0.022252      0.164352      0.032509
Ni	      6.24401      6.31147      4.16715        -0.084134      0.027595      0.157764
Ni	      4.23319      1.98607      6.16849        -0.093977      0.104538     -0.035384
O	      8.38356      4.27431      6.18380        -0.068449     -0.301224      0.001686
O	      2.08102      2.08511      2.10712         0.101760      0.010685     -0.200151
O	      4.18201      4.30809      2.21535        -0.021733     -0.192175     -0.035317
O	      4.11330      2.22319      4.11484         0.234613      0.049230     -0.171869
O	      6.07715      4.24372      4.12619        -0.014066     -0.134183     -0.115215
O	      6.17839      2.04702      6.29393         0.224776      0.072028     -0.122373
O	      2.25264      4.14896      4.15386         0.075213      0.216460      0.019895
O	      4.18750      6.24843      4.24719        -0.122699     -0.013778      0.018523
O	      4.18101      4.30023      6.10685        -0.020664      0.085294     -0.024010
O	      6.09596      6.30222      6.31635        -0.014795     -0.013540      0.182332
O	      6.25206      4.29710      8.28669        -0.051403     -0.009741      0.022155
O	      8.25271      6.27668      8.20659        -0.061808      0.026013      0.101521
O	      2.27579      6.26834      6.22995         0.043482     -0.031307      0.078718
O	      4.15678      8.20035      6.31168         0.000784     -0.085161     -0.071736
O	      4.20532      6.21906      8.17885        -0.012122      0.195389      0.008516
O	      6.21388      8.29720      8.27515        -0.088042     -0.055914     -0.002041
O	      6.26881      6.28551     10.17057        -0.078202      0.021584     -0.222705
O	      8.33149      8.41143     10.35200         0.011021      0.012543     -0.115908
