# total energy = -103.14518947 eV
 
CRYSTAL
PRIMVEC
4.056868 0.000000 0.000339 
2.028530 4.208738 -6.451021 
2.028455 4.187913 2.137096 
PRIMCOORD
16 1
Li	      6.08552      4.20685      1.99573        -0.001521      0.019796     -0.004960
Li	      2.02854      2.18335     -0.13767         0.001981     -0.049606     -0.005837
Li	      4.05713      1.93982     -1.95007         0.000093      0.014401      0.017014
Li	      4.05698      4.23249     -4.33184        -0.001535     -0.000028     -0.033889
Ti	      4.05707      6.38179     -2.03765        -0.000772      0.012984      0.209013
Ti	      6.08534      6.35367     -4.46639         0.000197      0.335135     -0.348654
Ni	      4.05699      4.18281      0.00374         0.000249     -0.005611      0.059601
Ni	      2.02853      4.18959     -2.09268         0.001061     -0.040647     -0.045433
O	      4.05721      4.41167     -2.08409        -0.002429      0.119995     -0.099858
O	      6.08522      6.32688     -2.28607         0.003624      0.094971     -0.001781
O	      4.05713      2.02942      0.13724        -0.000874     -0.058001      0.328932
O	      2.02861      4.17926     -0.07220         0.000063      0.006179      0.120735
O	      2.02833      2.13623     -2.28888         0.002677     -0.005014     -0.243881
O	      2.02845      4.15614     -4.23583         0.002411     -0.062033     -0.061505
O	      4.05710      6.25385     -4.17734        -0.003855     -0.004852      0.017018
O	      6.08551      8.19277     -4.37246        -0.001371     -0.377668      0.093485
