# total energy = -214.05692310 eV
 
CRYSTAL
PRIMVEC
0.006060 6.373258 6.228794 
6.278213 0.029726 6.204771 
4.189017 4.236744 0.016027 
PRIMCOORD
36 1
Li	      2.17022      6.32443      8.30000         0.032914      0.034652      0.022636
Li	      4.27146      8.37623      8.35894        -0.057272     -0.037891      0.021332
Li	      4.22157      6.41277     10.26206        -0.015000      0.000995     -0.022660
Li	      6.20360      8.57003     10.21360        -0.040065      0.066133      0.061833
Li	      2.10563      4.15821      2.12064         0.055610     -0.066091      0.011469
Li	      2.08763      2.16558      4.12348         0.041387     -0.047090      0.007413
Li	      6.28389      8.41813      6.33367         0.004143     -0.006925     -0.068749
Li	      4.29786      6.35075      6.32545         0.017536     -0.008375      0.012203
Li	      6.18371      6.51224      8.20528        -0.038436      0.006072     -0.015926
Sc	      2.08830      2.16227      0.09629         0.001994     -0.022392      0.067349
Sc	      8.34728      6.34371     10.31667        -0.047349      0.004437      0.166329
Cr	      4.16788      4.24324      0.04795         0.023121     -0.013351      0.151072
Cr	      4.25824      4.17637      4.13193         0.200597     -0.165987      0.000380
Co	      4.18672      6.34471      2.11169         0.066366     -0.097253      0.018279
Cu	      0.05560      4.23661      4.15023         0.050015      0.042817      0.143814
Cu	      4.13226      4.35213      8.28809        -0.012922     -0.203641     -0.151112
Ni	      8.32677      6.38195      6.21987         0.035067     -0.010056     -0.122001
Ni	      6.28353      4.33210      6.24948         0.026912     -0.072376     -0.162879
O	      4.20160      6.27190      8.27833         0.002310     -0.075221      0.030556
O	      6.40948      8.50040      8.30937         0.130275      0.036626     -0.031276
O	      1.93623      2.14156      2.08280        -0.067342      0.028938     -0.035932
O	      4.18200      4.39051      2.11309        -0.056656      0.075057     -0.093623
O	      4.16823      2.33410      4.14451         0.031099      0.033540     -0.159995
O	      6.08040      4.25647      4.21392         0.000748     -0.033615     -0.096601
O	      6.20670      2.11872      6.32655         0.134675     -0.060297      0.134604
O	      8.40549      4.28808      6.21675         0.053284     -0.084593      0.031783
O	      2.22040      4.28570      4.14485        -0.303539      0.012466     -0.020348
O	      4.18150      6.24232      4.05472        -0.020212      0.156298     -0.091336
O	      4.24770      4.22120      6.14633        -0.069592      0.112979      0.068810
O	      6.39203      6.29273      6.23951        -0.202735      0.173741      0.024661
O	      6.20571      4.08846      8.35081        -0.132682      0.056805      0.000496
O	      8.49729      6.48488      8.23922        -0.030630      0.193415      0.128745
O	      1.98373      6.46678      6.18329         0.007728      0.012408     -0.041731
O	      4.17792      8.59957      6.19549         0.029591      0.002239      0.082847
O	      6.27868      6.37420     10.47951        -0.015184     -0.095406     -0.125111
O	      8.42709      8.49152     10.32956         0.164244      0.050940      0.052671
