# total energy = -214.05254302 eV
 
CRYSTAL
PRIMVEC
0.007839 6.209038 6.314797 
6.286380 0.049400 6.272854 
4.227272 4.147584 -0.003284 
PRIMCOORD
36 1
Li	      8.33172      2.19689      6.15029        -0.095580     -0.012487     -0.044049
Li	      8.37591      4.13223      4.35799        -0.001927     -0.035275      0.050683
Li	      6.41447      8.26785     10.60634        -0.010280     -0.057208      0.125056
Li	      6.27734      2.19085      8.21590         0.008288      0.001808     -0.093662
Li	      8.38402      4.18245      8.28180        -0.038599      0.014027     -0.025064
Li	      4.31287      1.98961      6.21059         0.081961      0.033773     -0.027261
Li	      6.30294      4.16570      6.30395         0.023806     -0.108014      0.001310
Li	     10.43405      8.37058     10.50632         0.015922      0.040119     -0.059326
Li	      2.11683      4.14870      6.22718         0.020613      0.063507     -0.018489
Sc	      2.07978      6.22638      8.38054         0.192482      0.280156     -0.052205
Sc	      4.18552      2.15250      2.06484        -0.257379     -0.217621      0.108747
Cr	      6.30957      6.29599      4.26377        -0.256413     -0.091159      0.034763
Cr	      6.36354      6.21207      8.38924        -0.189205     -0.086045     -0.078674
Co	      8.41424      6.25748     10.46421         0.024943      0.033191      0.039086
Cu	      4.20005      4.15238      4.26273         0.134843      0.057761      0.203971
Cu	      4.21292      6.22727      6.26525        -0.144917      0.394601      0.261356
Cu	      8.49069      8.27803      8.41833        -0.032572     -0.089383     -0.153040
Cu	     10.41573      4.19311      6.18404         0.243283      0.121162      0.043315
O	      4.20000      4.25268      6.40507         0.040144     -0.346306      0.111226
O	      6.51917      6.22303     10.37239        -0.001256     -0.112096      0.118882
O	      8.43123      8.15460     10.38478         0.057213      0.050172     -0.109084
O	      2.12674      2.07903      2.24701         0.058397     -0.192026      0.010779
O	      4.26452      4.18586      2.10204        -0.027039     -0.147634     -0.011463
O	      4.05440      2.15413      4.19584         0.064145     -0.025511     -0.003886
O	      6.23072      4.27505      4.18002        -0.021904     -0.012622     -0.054421
O	      6.28666      1.89867      6.24458        -0.001126      0.355842      0.016557
O	      8.49868      4.18269      6.26807        -0.040153     -0.088159      0.028551
O	      2.24108      4.18836      4.19656        -0.043384      0.136086      0.072253
O	      4.17378      6.16551      4.32369         0.023702      0.065958     -0.422398
O	      6.21528      6.27597      6.31118         0.009320      0.054151     -0.019129
O	      6.24107      4.23002      8.36738         0.030538      0.148157     -0.037661
O	      8.35340      6.31631      8.53275         0.056795     -0.219508     -0.022524
O	      2.14261      6.22911      6.19235        -0.112925      0.015336      0.084495
O	      4.18917      8.39443      6.31827         0.011240     -0.234923     -0.048601
O	      4.26378      6.19229      8.39063         0.024515      0.271560      0.060565
O	      6.29732      8.28352      8.43481         0.152506     -0.061390     -0.090658
