# total energy = -215.26358931 eV
 
CRYSTAL
PRIMVEC
-0.025318 6.280104 6.209396 
6.289549 -0.002618 6.186555 
4.197413 4.175981 -0.006206 
PRIMCOORD
36 1
Li	      4.17113     10.40727      6.22365         0.053934     -0.014710     -0.032672
Li	      2.17435      8.32658      6.21477         0.053826     -0.105032     -0.037619
Li	      4.09452      4.22924      4.20270        -0.023105      0.012744      0.034090
Li	      6.23997      4.26370      6.22518        -0.045701      0.002307      0.000839
Li	      2.10574      6.22077      4.22906        -0.008835     -0.023789      0.082705
Li	      6.34954      8.31972      6.25072         0.005421      0.005109      0.032193
Li	      4.16565      6.23582      6.25116        -0.029309      0.008407      0.031763
Li	      4.15375      4.20125      8.18380        -0.008405     -0.011227     -0.001523
Li	      6.25776      6.30756      8.17617         0.006742      0.069539      0.007895
Sc	      6.31049      8.34638     10.36539         0.067641     -0.056269      0.063822
Sc	      4.17528      8.39960      4.23820        -0.003725      0.039565      0.008473
Cr	      2.09918      6.27193      8.16962        -0.019146      0.059254     -0.226994
Cr	      6.26196      2.09804      8.23377        -0.012249      0.013196     -0.011234
Co	      8.33647      6.30866      6.20492        -0.045091      0.120787      0.079269
Ni	      4.16235      8.37778      8.17964        -0.008952      0.065188      0.030473
Ni	      8.38698      4.17067      4.14204         0.052731     -0.066703      0.070328
Ni	      8.38196      4.19045      8.21066         0.032305      0.021918     -0.065920
Ni	      6.28089      6.26642      4.17158        -0.048421      0.012479      0.032568
O	      2.03177      2.06609      2.04521        -0.111684     -0.052891     -0.077304
O	      4.26448      4.29471      2.04808         0.113462      0.052495      0.023857
O	      4.16344      2.03762      4.22421         0.078061      0.101599      0.081385
O	      6.31326      4.19724      3.98057        -0.112301     -0.072812     -0.003190
O	      6.14144      2.08359      6.29765        -0.079883      0.009635     -0.014812
O	      8.39114      4.37329      6.22839        -0.024096      0.083418     -0.058499
O	      2.07141      4.14604      3.97841         0.014314      0.064099      0.081624
O	      4.18100      6.26877      3.96012        -0.072708     -0.017914     -0.055730
O	      4.20888      3.96836      6.20035        -0.024278     -0.145957     -0.015927
O	      6.47788      6.26582      6.18637         0.140500      0.001887      0.110265
O	      6.33505      3.98088      8.24683        -0.110317     -0.009334     -0.030011
O	      8.48429      6.21103      8.13420         0.002709      0.097035     -0.086771
O	      2.09561      6.27353      6.36813         0.003326     -0.025903      0.135579
O	      4.18496      8.34767      6.20741         0.023982     -0.022295     -0.092159
O	      4.02385      6.33467      8.30774        -0.061923     -0.109044     -0.053162
O	      6.18978      8.50471      8.30233         0.147986     -0.072462     -0.005871
O	      6.24894      6.28985     10.27559         0.079624      0.029003     -0.013327
O	      8.35033      8.40350     10.37373        -0.026438     -0.063323     -0.024406
