# total energy = -217.74610215 eV
 
CRYSTAL
PRIMVEC
0.013189 6.120716 6.329853 
6.321465 0.007420 6.335807 
4.214148 4.084320 0.004979 
PRIMCOORD
36 1
Li	      4.25801     10.15654      6.32767         0.051521     -0.017025     -0.005649
Li	      2.13657      6.06837      8.36329         0.026491     -0.023168     -0.034228
Li	      2.14597      4.07824      2.19427         0.011268      0.017853      0.061096
Li	      4.06085      4.18726      4.18675        -0.060335     -0.013398     -0.023618
Li	      6.33848      4.05909      6.36004        -0.012006      0.038988     -0.026596
Li	      4.26371      8.15955      4.27095        -0.007108      0.021494     -0.001664
Li	      2.21389      5.97562      4.33614        -0.000280      0.051532      0.048392
Li	      2.06817      4.18793      6.25483        -0.018482      0.010956     -0.002437
Li	      8.41755      8.17845      8.45649        -0.039280      0.037560      0.021996
Sc	      2.08218      2.14929      4.23085        -0.035944     -0.006025      0.027905
Sc	      6.37011      6.03348      8.43260        -0.042682      0.080540     -0.014916
Cr	      6.35010      2.06935      4.25130        -0.096900     -0.154159     -0.064469
Cr	     10.52673      6.10496      8.41832         0.039181     -0.038404      0.078372
Co	      8.42583      4.06166      4.26358        -0.000102     -0.033717     -0.153707
Co	      4.12455      6.05985      6.26301        -0.071144     -0.079012     -0.031927
Cu	      4.24820      2.09945      6.34162        -0.063017      0.045897     -0.072660
Ni	      2.13042      8.14484      6.32778         0.027426     -0.117122      0.056401
Ni	      4.24552      2.11117      2.07896        -0.018794      0.056869      0.072370
O	      4.21936      4.28100      6.32746         0.002858     -0.138048     -0.000871
O	      1.99140      2.06466      2.09298        -0.120841      0.006020      0.101324
O	      4.20722      4.21135      2.09110        -0.026952      0.102577     -0.002849
O	      4.28009      1.97959      4.30160        -0.024247     -0.042229     -0.034375
O	      6.54472      4.03575      4.22842         0.171675      0.155591      0.057218
O	      6.33473      2.05035      6.34994        -0.068767     -0.023516      0.020560
O	      8.45455      4.03062      6.10199         0.022584      0.320238     -0.068447
O	      2.10992      4.08175      4.21371        -0.041969     -0.131769     -0.038234
O	      4.22962      6.12053      4.13188         0.059219      0.037787     -0.119441
O	      6.29531      6.13429      6.35154         0.006677      0.007011     -0.010635
O	      6.31621      3.95311      8.41920        -0.003520     -0.050680     -0.008653
O	      8.52534      6.12803      8.30620         0.121311      0.006670      0.108247
O	      2.18937      6.16422      6.32487         0.013448     -0.125093      0.004463
O	      4.17173      7.96925      6.41431         0.079907      0.056750     -0.101024
O	      4.26585      6.17949      8.63691         0.006571     -0.121708      0.122424
O	      6.29623      8.13447      8.60357         0.089282      0.006640      0.040203
O	      6.16399      6.16448     10.54497        -0.087874     -0.030274      0.069532
O	      8.34006      8.28349     10.60326         0.110827      0.084374     -0.074103
