# total energy = -216.96858811 eV
 
CRYSTAL
PRIMVEC
0.010735 6.348672 6.200124 
6.201646 0.017888 6.193068 
4.159422 4.253189 -0.013647 
PRIMCOORD
36 1
Li	      6.25083      6.36316     12.29108         0.000906      0.098096     -0.006691
Li	      6.22648      2.15039      4.23409        -0.029660      0.013836      0.035511
Li	      6.18969      6.36680      4.24790        -0.011097      0.022124      0.012152
Li	      4.11130      4.36438      4.18801        -0.013327      0.076112      0.078695
Li	      6.14087      4.23030      6.05384        -0.053872      0.009983     -0.013023
Li	      4.18373      8.48959      4.21142         0.079381     -0.033954     -0.156337
Li	      2.15843      6.28879      4.31968         0.016625     -0.085491      0.007331
Li	      4.11137      6.42092      5.98580         0.052664     -0.062270     -0.051887
Li	      4.10017      4.25549      8.20640         0.109845     -0.098340     -0.064317
Sc	     10.35686      6.46746      8.32484        -0.050474      0.255539      0.064975
Sc	      6.15737      6.36071      8.29348         0.037083     -0.189039     -0.093041
Cr	      6.24826     10.52899      8.25869        -0.028706      0.205469      0.277060
Cr	      2.14229      4.24853      2.10733        -0.120119      0.009124     -0.190268
Co	      8.28532      4.23255      4.16118        -0.221567      0.119909      0.151401
Co	      4.13860      2.12111      6.11765         0.060789      0.137394      0.131454
Cu	      2.18765      8.42799      6.11165        -0.230352     -0.158576      0.124768
Cu	      4.17535      2.16560      2.06125         0.025856      0.013898      0.316432
Ni	      2.08519      4.23049      6.09296         0.045083     -0.054424     -0.241551
O	      4.22937      8.44812      6.30339        -0.155614      0.074159      0.182452
O	      8.29624      8.70807     10.46769         0.013990      0.014092     -0.380936
O	      2.14254      2.13692      1.91081         0.155102     -0.035378      0.085239
O	      4.18688      4.35229      2.09744         0.102696     -0.314706     -0.057114
O	      4.12073      1.89497      4.15813         0.008151     -0.089741     -0.224934
O	      6.38579      4.26618      4.03293         0.061078     -0.025547      0.007386
O	      6.02032      2.17121      6.18319        -0.001602     -0.012415      0.079731
O	      8.27067      4.45910      6.12362         0.052758     -0.045060     -0.096701
O	      2.08921      4.25345      4.00808         0.018202      0.019232      0.075011
O	      4.13917      6.41094      4.10012        -0.023517      0.024375     -0.086945
O	      4.06594      4.02072      6.14700         0.245918     -0.018702      0.048140
O	      6.35329      6.44286      6.17964        -0.050197     -0.069029      0.062458
O	      6.34923      4.29537      8.20407        -0.104151     -0.080527      0.052871
O	      8.27111      6.29707      8.13163         0.060506      0.024232     -0.010770
O	      2.10769      6.27154      6.30898        -0.006713      0.182608     -0.195519
O	      4.07344      6.21815      8.43314         0.081395      0.097410     -0.022013
O	      6.17221      8.53475      8.24609        -0.158107      0.004519      0.079480
O	      6.04692      6.36924     10.32870         0.031048     -0.028909      0.019497
