# total energy = -217.04657591 eV
 
CRYSTAL
PRIMVEC
-0.032050 6.666006 6.153442 
6.088005 -0.018615 6.139865 
4.044118 4.419673 0.002145 
PRIMCOORD
36 1
Li	      2.03449      2.16542      0.11186        -0.024244     -0.061750     -0.032229
Li	      6.03938      4.31129      2.14015         0.077627     -0.039159     -0.011865
Li	      4.12212      2.41346      2.02697         0.074018     -0.022423     -0.061479
Li	      4.08479      6.57509     10.14978         0.005591     -0.034428      0.005788
Li	      6.05729      8.79422     10.21047        -0.001358     -0.118732      0.005365
Li	      4.02611      6.46907      2.02050        -0.028898     -0.013095     -0.022399
Li	      2.12467      4.25631      2.06296        -0.065209     -0.092570      0.015932
Li	      5.98336      8.93052      6.21836         0.033951      0.003526      0.021210
Li	      6.06241      6.76265      8.25807        -0.023718      0.030591      0.050879
Sc	      6.19186      4.37503      6.22183        -0.020228      0.076434      0.107182
Sc	      3.94407      6.74118      6.20069         0.047258     -0.069951      0.058255
Cr	      2.02612      2.18763      3.95714        -0.003804      0.257903     -0.101150
Cr	      3.99901      4.40180      4.06399        -0.088691      0.206131     -0.087400
Co	      4.06383      2.22293      6.16947        -0.052513      0.052795      0.015020
Co	      8.02775      8.89980      8.20099        -0.076943      0.123591      0.010307
Cu	      4.04991      4.39624      0.05838        -0.109913     -0.085992     -0.098742
Cu	      6.05070      4.53944     10.22734         0.082541     -0.062420     -0.074857
Cu	      8.04093      6.71856     10.18354         0.179744      0.197346     -0.337744
O	      6.20685      8.85616      8.23445        -0.093340      0.047674     -0.059683
O	      6.14192      6.54841     10.28682         0.148225      0.464948      0.282863
O	      8.15009      8.91751     10.06875        -0.393801     -0.085117      0.109731
O	      2.06963      2.16360      2.18515        -0.011795      0.012208     -0.211562
O	      4.05327      4.39410      2.09814         0.007017      0.007433     -0.069995
O	      3.98823      2.37266      4.18867         0.042780     -0.009105     -0.031308
O	      5.99430      4.65660      4.14285         0.127937     -0.082367     -0.048005
O	      5.93076      2.33357      6.10783         0.120508      0.009376      0.051978
O	      8.18595      4.46974      6.20369         0.017480      0.077356     -0.007099
O	      1.98191      4.11702      4.08869         0.159878     -0.330051      0.063351
O	      4.00924      6.45343      4.07243        -0.057764     -0.410323     -0.033355
O	      4.03572      4.50553      6.16908        -0.077885     -0.055877     -0.167532
O	      6.14667      6.55007      6.04636        -0.033148      0.029736      0.050632
O	      5.93253      4.47775      8.26313         0.083819      0.035396      0.024000
O	      8.07637      6.96768      8.13562        -0.062195      0.032458      0.032065
O	      1.91745      6.68400      6.02850         0.008703     -0.088373      0.269135
O	      3.99423      8.74648      6.03549         0.020179      0.053795      0.247191
O	      4.02349      6.39467      8.18775        -0.011807     -0.056963      0.035523
