# total energy = -216.60642316 eV
 
CRYSTAL
PRIMVEC
0.006798 6.294391 6.263103 
6.184938 0.032124 6.237402 
4.134084 4.190060 0.010832 
PRIMCOORD
36 1
Li	      4.04510      4.12071      0.11547         0.062268      0.076907     -0.041717
Li	      4.11491      8.42247      8.21525         0.123969      0.019494      0.183580
Li	     10.28925      6.27138      8.27369        -0.123587      0.079542      0.123973
Li	      8.32349      4.32657      8.28650        -0.066831      0.079245      0.068408
Li	      8.22910      6.34624      6.37365        -0.025136     -0.013184     -0.094251
Li	      2.13373      6.20612      4.04080         0.031426     -0.059080     -0.051697
Li	      6.25211      8.34454      6.31772         0.025026      0.014706     -0.085305
Li	      4.16306      6.31619      6.29557         0.018983     -0.114931     -0.076815
Li	      8.22203      8.32764      8.23896         0.043295     -0.006836      0.010729
Sc	      6.19916      8.32325     10.39601        -0.263924      0.091861     -0.138057
Sc	      4.19072      8.32696      4.19710         0.412115     -0.174636     -0.594737
Cr	      2.10463      6.35209      8.22749         0.136286     -0.405154      0.405663
Cr	      6.17776      4.22977      6.33324         0.088446      0.126402     -0.250119
Co	      2.07277      2.10687      0.04651         0.594814      0.206058      0.601606
Co	      4.12370      4.24402      4.19211        -0.914964      0.129378      0.166469
Ni	      8.25805      4.20796      4.20761        -0.213976      0.285204     -0.045169
Ni	      2.10211      2.15568      4.14677        -0.071887     -0.022725      0.139461
Ni	      6.20205      6.34950      8.27724        -0.076396     -0.058677     -0.032862
O	      8.13919      6.34289      8.30859         0.292409      0.020766     -0.020940
O	      2.07590      2.00806      2.00269         0.016949      0.084021      0.458168
O	      4.28819      4.21095      2.31671         0.232691     -0.062264     -0.509215
O	      4.11656      2.27346      4.19795         0.142381     -0.972699      0.017179
O	      6.12154      4.23851      4.18378         1.467336     -0.123476     -0.052446
O	      6.28191      2.21265      6.24011        -0.353374     -0.166973     -0.067265
O	      8.18297      4.08689      6.22315        -0.058945      0.776941      0.218501
O	      2.19113      4.17873      4.19462        -1.313265      0.009657     -0.078349
O	      4.18570      6.17005      4.17255         0.018266      0.983132     -0.034576
O	      4.19589      4.21949      6.05050         0.209048      0.018187      0.382610
O	      6.19822      6.16899      6.28108        -0.079199      0.253544     -0.144119
O	      6.14069      4.26474      8.27092        -0.000732     -0.165210      0.220708
O	      2.02430      6.45872      6.43244        -0.153150     -1.042107     -0.004461
O	      4.02952      8.40011      6.21385         0.034415      0.019256      0.168313
O	      4.00131      6.31756      8.45690        -0.211905     -0.019576     -0.322261
O	      6.21481      8.49347      8.33483        -0.048192      0.224532     -0.078534
O	      6.14949      6.29534     10.34916         0.114575      0.008550      0.197789
O	      8.27396      8.42282     10.58224        -0.089232     -0.099855     -0.640263
