# total energy = -219.57741971 eV
 
CRYSTAL
PRIMVEC
-0.004407 6.096486 6.462746 
6.106341 0.022358 6.437475 
4.100546 4.076379 -0.015170 
PRIMCOORD
36 1
Li	      6.04945      6.11352     12.77598        -0.058725      0.017050     -0.038717
Li	      6.06728      4.13350      2.27410        -0.036974      0.017582      0.079339
Li	      4.06972      0.08226      4.31128         0.045135     -0.015553     -0.023642
Li	      6.00279      2.05582      4.34825        -0.019166     -0.069568      0.022139
Li	      4.10183      6.05343      2.16779         0.017120      0.010430     -0.022233
Li	      4.16819      4.03877      4.25629        -0.018770      0.025110     -0.079466
Li	      6.13801      4.09810      6.26783         0.007362     -0.119535     -0.013667
Li	      8.03720      6.07436     10.80224        -0.046116     -0.009206     -0.094637
Li	      6.12948      6.12774      8.68370        -0.002274     -0.041974      0.165091
Sc	      7.99725      2.04458      6.33777        -0.178117      0.253752     -0.077686
Sc	      8.19235      8.16587      8.67708         0.092181      0.006250      0.124367
Cr	      2.06097      4.09335      2.15851        -0.051011      0.078805     -0.002632
Cr	      4.16285      6.09164      6.40858        -0.103542      0.050288      0.016756
Co	      4.12106      8.15012      8.58184        -0.054958     -0.162978     -0.151256
Co	      8.17065      6.10485      6.43408         0.211446     -0.028651      0.122220
Co	      2.04932      4.09451      6.45842         0.101612     -0.054972      0.024677
Cu	      6.17336      6.07906      4.30211        -0.004205      0.085103     -0.055697
Ni	      6.11215      4.09677     10.72960        -0.114652     -0.016531     -0.051019
O	      6.13736      4.24449      4.29579         0.005983     -0.211696      0.015161
O	      6.09400      5.96416     10.72829        -0.012641      0.514953     -0.026651
O	      2.17847      2.09466      2.00854         0.111568     -0.088791     -0.231581
O	      4.03220      3.92225      2.16094         0.053664      0.121699      0.133760
O	      3.96224      2.02489      4.48544         0.062154      0.017544      0.219567
O	      6.00706      2.04519      6.38936         0.109094      0.003226     -0.000840
O	      8.12613      4.17044      6.58170        -0.042394     -0.040033      0.012868
O	      2.04315      3.94072      4.35964         0.197262      0.072875     -0.457810
O	      4.25170      6.17599      4.38582        -0.005249     -0.335744      0.096147
O	      3.98516      4.05656      6.51511         0.012738     -0.002271      0.029467
O	      6.19947      6.26514      6.59076         0.041852      0.300562     -0.130547
O	      6.15903      4.06705      8.72328         0.001909     -0.001464     -0.270926
O	      8.21720      6.10924      8.43804        -0.066143     -0.101960     -0.071814
O	      2.16827      6.04735      6.35902        -0.039771     -0.298283     -0.048714
O	      4.19680      8.08789      6.34300        -0.061969     -0.052911      0.168880
O	      4.08260      6.21341      8.43357         0.048620      0.041641     -0.112653
O	      6.02886      8.21566      8.40564        -0.084048      0.073028      0.589365
O	      8.13208      8.13473     10.71870        -0.118977     -0.037776      0.142382
