# total energy = -220.56991922 eV
 
CRYSTAL
PRIMVEC
0.008797 6.357094 6.315791 
6.268318 0.014987 6.309495 
4.170572 4.225543 0.018642 
PRIMCOORD
36 1
Li	      0.17404      6.33052      6.40892        -0.044657     -0.011269      0.018054
Li	      2.07703      8.36011      6.40119        -0.003636      0.025687      0.063721
Li	      1.92921      0.07895      2.01329         0.011664      0.134320      0.037217
Li	      4.20142      2.21423      2.05256        -0.055929      0.024469      0.007328
Li	      4.26645      6.23389      2.17200         0.032834     -0.024972      0.057982
Li	      4.21985      4.17428      4.12937        -0.034318     -0.010532     -0.071074
Li	      4.16859      2.19212      6.21344         0.005404     -0.018392     -0.072845
Li	      2.09846      4.31440      6.32007         0.051006     -0.023736     -0.068730
Li	      4.12427      6.37329      6.37635         0.015779      0.012967     -0.052711
Sc	      4.21116      0.06570      4.20718         0.149373      0.081377      0.106747
Sc	      2.19367      4.21223      2.07716         0.078346     -0.249963     -0.009763
Cr	      6.16782      4.20839      6.26599         0.044128      0.052701     -0.003578
Cr	      8.34872      8.45248      8.41656         0.095513      0.099351     -0.035056
Co	      2.08599      2.11965      4.19476        -0.108918      0.013174     -0.219752
Co	      4.19467      8.43798      4.56283         0.080767     -0.132301      0.085887
Co	      2.12777      6.33230      4.30818         0.348656     -0.108988      1.183035
Cu	      6.22670      2.12786      4.19073        -0.043945      0.014197      0.092676
Cu	      6.24653      6.38992      8.34547         0.002382     -0.036891     -0.048679
O	      2.12850      6.34678      6.13067        -0.053134      0.024524     -0.173166
O	      4.16640      8.46432      6.31347         0.003044     -0.007971      0.185074
O	      2.07216      2.15929      2.28583         0.020267      0.029607     -0.166377
O	      4.13618      4.27845      2.06901        -0.007758     -0.005430     -0.014914
O	      4.14366      2.10089      4.18950         0.076458     -0.031495     -0.033245
O	      6.25207      4.31927      4.26488        -0.032695     -0.080163      0.025267
O	      6.26171      2.33330      6.14865         0.019869      0.085637      0.057987
O	      8.17305      4.24492      6.31303        -0.070319      0.032262     -0.050212
O	      1.99580      4.20015      4.22558         0.029251      0.116742     -0.155618
O	      4.14436      6.52163      4.23105         0.289063     -0.035024     -0.170423
O	      4.29629      4.21610      6.40799        -0.044174     -0.022774      0.014069
O	      6.26923      6.18239      6.11918        -0.054661     -0.073519      0.258740
O	      6.20412      4.33239      8.27311        -0.034055      0.019866     -0.137897
O	      8.28176      6.40791      8.62234        -0.073765     -0.004846     -0.299955
O	      4.25658      6.23056      8.43637        -0.053234     -0.031239     -0.060307
O	      6.36015      8.36781      8.53282        -0.044671      0.011008     -0.076857
O	      6.35255      6.23071     10.63581        -0.524091      0.104109     -0.177222
O	      8.43184      8.46169     10.46310        -0.069842      0.027506     -0.095404
