# total energy = -103.86382266 eV
 
CRYSTAL
PRIMVEC
2.131521 4.121119 2.045294 
4.239400 -2.040630 -2.061474 
0.020072 4.134020 -4.135474 
PRIMCOORD
16 1
Li	      2.13917      4.11527      1.99377        -0.020098     -0.002137     -0.018966
Li	      2.14986      2.08307      0.01311         0.009407      0.019087      0.006231
Li	      4.26841      2.08809     -2.07469         0.006061     -0.012419      0.014693
Li	      4.26582      6.20064     -2.09449        -0.001837      0.001849     -0.003544
Ti	      2.09913      4.02370     -2.04528        -0.084994     -0.169316      0.069908
Ti	      4.28294      4.28661     -4.22798         0.044809      0.261796     -0.153492
Ni	      4.24955      4.11498      0.00250         0.004228     -0.016136      0.022786
Ni	      4.20952      0.04080     -4.08634        -0.019108      0.026323      0.057473
O	      2.06340      2.12581     -2.05768         0.098754      0.262865     -0.009334
O	      4.18188      4.14897     -2.13172        -0.100552     -0.002423     -0.109921
O	      2.28515      4.11243     -4.06716         0.065355     -0.002477      0.144766
O	      4.27500      2.00598     -0.01150        -0.006565     -0.362406     -0.009894
O	      4.17282      0.02555     -2.00312         0.114174      0.009835      0.245406
O	      2.22045      4.15602     -0.10758        -0.125822     -0.116763     -0.141560
O	      4.41309      2.12084     -4.14652         0.121726      0.118934     -0.003233
O	      1.99529      6.11420     -2.05767        -0.105538     -0.016612     -0.111320
