# total energy = -219.64291756 eV
 
CRYSTAL
PRIMVEC
0.016287 6.222260 6.252890 
6.132207 -0.016985 6.286343 
4.086117 4.168554 -0.009651 
PRIMCOORD
36 1
Li	      2.03649      8.24674      6.24146         0.085695      0.050652      0.128688
Li	      2.03542      6.20701      8.30170         0.000380      0.176961      0.058601
Li	      6.16678      8.27255     10.45913        -0.011688      0.068996     -0.081349
Li	      8.13556      4.17654      8.32260         0.124872     -0.135551     -0.054050
Li	      6.08948      6.26457      4.26118         0.040394     -0.067049     -0.216397
Li	      4.09027      2.12055      6.30334         0.002242     -0.033884      0.050375
Li	      6.07508      4.17633      6.32238         0.027228      0.038158     -0.018903
Li	      8.18554      6.27121     10.43497         0.017742      0.005532     -0.034976
Li	      4.10571      6.17161      6.22343        -0.002357      0.011645      0.117439
Sc	      4.03293      2.07296      2.04196        -0.684485      0.148902      0.039604
Sc	      8.05764      4.14981      4.26597        -0.176221      0.057860     -0.195650
Cr	      6.17309      0.07907      6.24585        -0.128593     -0.062264      0.422212
Cr	      4.08206      4.18319      4.25547         0.165335     -0.043653     -0.443535
Co	      0.09351      2.07323      2.09672        -0.759195      0.096879      0.109613
Co	      4.11989      4.14302      8.33977        -0.095029      0.195338     -0.046024
Co	      6.21757      6.20991      8.30985         0.186746     -0.159509      0.196740
Ni	      4.12935      8.28100      4.16139         0.050849     -0.083702      0.160680
Ni	      2.08300      4.08762      6.23751        -0.072040      0.354029     -0.004803
O	      1.95460      2.07371      2.07466         0.681923     -0.052086     -0.092607
O	      4.07461      4.18127      2.08320         0.058432     -0.436457     -0.017210
O	      4.07519      2.12822      4.11802         0.035131     -0.029338      0.179043
O	      6.02107      4.12580      4.20289        -0.022742      0.013244      0.137637
O	      6.14975      1.91973      6.34129         0.051603      0.040607      0.336649
O	      8.33607      4.10902      6.26554         0.008292      0.068289     -0.009354
O	      2.15606      4.12910      4.19415         0.007786     -0.006179      0.014979
O	      4.09608      6.16202      4.10863        -0.010159      0.069513     -0.341355
O	      4.09116      4.18164      6.23749         0.154070     -0.046531      0.194176
O	      6.17271      6.25770      6.47000        -0.004637     -0.360220     -0.580113
O	      6.05583      4.21818      8.39976        -0.131075     -0.171320     -0.317120
O	      8.20141      6.40529      8.34383         0.987637      0.102680     -0.019808
O	      1.90213      6.14601      6.27351         0.008031     -0.045541     -0.132328
O	      4.09599      8.40036      6.22014        -0.030617     -0.034676     -0.045925
O	      4.21728      6.17178      8.36157        -0.851828     -0.209422      0.113445
O	      6.24058      8.16517      8.30419         0.258101      0.407996      0.304429
O	      6.13415      6.18961     10.48316         0.114783      0.172652      0.071125
O	      8.20979      8.32460     10.24026        -0.086606     -0.102552      0.016071
