# total energy = -222.84896406 eV
 
CRYSTAL
PRIMVEC
-0.042706 6.296183 6.375111 
6.053723 -0.017055 6.348965 
4.031349 4.175937 -0.006693 
PRIMCOORD
36 1
Li	      6.02082      6.32063     12.62991        -0.007556     -0.032590     -0.022809
Li	      8.01164      2.13204      6.28919         0.021695     -0.013224     -0.088109
Li	      4.01141      8.29724      8.46987        -0.051354      0.022483      0.014059
Li	      8.06166      4.16092      4.44117         0.032135     -0.095569     -0.038502
Li	      6.06515      6.28054      4.33217        -0.044523     -0.028076     -0.020177
Li	      4.04382      4.20689      4.32970         0.033951      0.062225     -0.031231
Li	      4.03610      1.98044      6.26182        -0.047839      0.048259     -0.021051
Li	      2.00242      6.29411      4.36475        -0.048833      0.076988      0.008181
Li	      4.03860      4.19357      8.43166        -0.039416     -0.041518      0.108882
Sc	      2.06628      4.11213      2.12882         0.056428     -0.111727      0.110099
Sc	      6.01736      6.32662      8.46956         0.019696     -0.116925      0.147643
Cr	      2.00566      6.27023      8.45284         0.023831      0.004374     -0.022022
Cr	      5.96095      2.10266      4.27610         0.159602     -0.155539     -0.352476
Co	      3.98262      6.26535      2.17186         0.124008     -0.105684      0.272707
Co	      9.90307      8.29450     10.68725         1.063970      0.258958     -0.045864
Co	      2.01519      4.20718      6.29566         0.005575     -0.069009      0.053194
Co	      4.01453      6.29174      6.32637        -0.042123      0.101983     -0.214426
Cu	      5.99611      4.12308      6.29791        -0.043814      0.173020     -0.014258
O	      4.00146      4.36640      6.31775        -0.035647      0.083341      0.067309
O	      1.86364      2.01091      2.13208        -0.045326      0.007232     -0.032425
O	      4.08406      4.32887      2.10408        -0.005272     -0.160949     -0.049512
O	      4.15701      2.09227      4.17891         0.170642     -0.000521      0.013692
O	      6.11624      3.98980      4.05266        -0.021323      0.047359     -0.095622
O	      6.00016      2.12074      6.20821        -0.033220     -0.026988      0.253021
O	      7.93438      4.15071      6.46349         0.080636      0.054443     -0.113228
O	      1.88307      4.21979      4.35237        -0.539057     -0.242785      0.037694
O	      4.00032      6.34627      4.35639        -0.067209     -0.201226     -0.016463
O	      5.98364      6.38368      6.34977        -0.109598     -0.127364     -0.009482
O	      6.01105      4.06580      8.61918        -0.054616      0.449316      0.272863
O	      8.14535      6.21396      8.47085         0.030851      0.004924     -0.062531
O	      2.07354      6.14296      6.43580         0.097068      0.029008     -0.048529
O	      4.11079      8.27526      6.33984        -0.095391     -0.031958     -0.109333
O	      3.99755      6.30526      8.28925        -0.185993     -0.077699     -0.124869
O	      6.03932      8.39638      8.39910        -0.035908      0.101661      0.097761
O	      6.03874      6.43316     10.54957        -0.141016      0.185754      0.072444
O	      8.05320      8.40112     10.64030        -0.225056     -0.071978      0.003372
