# total energy = -223.67911629 eV
 
CRYSTAL
PRIMVEC
-0.005743 6.276235 6.160350 
6.192278 0.006089 6.148342 
4.164232 4.212681 -0.032275 
PRIMCOORD
36 1
Li	      6.15803      6.34292     12.18651         0.027537     -0.073764      0.046133
Li	      6.09251      2.22337      8.15953        -0.055486      0.083594     -0.035345
Li	      6.17461      6.29717      4.33838         0.070815      0.016642     -0.061184
Li	      4.06872      2.13977      6.12190         0.063963     -0.011300     -0.015775
Li	      6.18167      4.20942      6.14343         0.009264      0.007841     -0.012520
Li	      4.15834      8.33954      4.11386         0.007041     -0.028157      0.086239
Li	      6.26966      8.25313      6.05181        -0.116328     -0.041736      0.040809
Li	      4.25203      6.29395      6.08954        -0.016255      0.116674      0.053192
Li	      4.27728      4.10902      8.07611         0.020494     -0.072201     -0.007808
Sc	      2.08713      6.25018      8.09614        -0.081976     -0.054004     -0.023472
Sc	      8.22151      4.21653      8.12895        -0.015859     -0.069496     -0.041776
Cr	      4.14901      4.28927      4.20776        -0.107963     -0.068589      0.013626
Cr	      6.19748      6.29191      8.14987         0.062855     -0.010070     -0.044659
Co	      8.24320      2.09903      6.11695         0.217963     -0.022208      0.195402
Co	      4.13122      8.38168      8.13099        -0.012665      0.054260      0.492078
Co	      6.22745      2.11390      4.11136        -0.115151     -0.038383     -0.112603
Co	      2.08075      6.30589      4.12434        -0.007951     -0.007550     -0.009110
Ni	      8.29011      4.22178      4.13226         0.067734      0.040230     -0.052306
O	      2.11837      2.08464      1.96228         0.156572     -0.033980     -0.092131
O	      4.16817      4.19280      2.16336         0.047975     -0.438502     -0.128454
O	      4.25498      2.17531      3.93800         0.090963      0.008638      0.191740
O	      6.19424      4.11141      4.05337        -0.015237     -0.043972     -0.070639
O	      6.30444      2.09582      6.02100         0.142649      0.029219     -0.157447
O	      8.30033      4.07704      6.07756         0.029455     -0.139279      0.210265
O	      2.15929      4.33462      4.12128        -0.056756      0.035897     -0.004993
O	      4.03231      6.16991      4.08005         0.040034     -0.043712      0.002152
O	      4.14856      4.15012      5.98798         0.000378     -0.002244      0.065115
O	      6.23674      6.29828      6.21876        -0.042416     -0.060296     -0.050405
O	      6.21440      4.28202      8.27726        -0.000493     -0.009036     -0.046207
O	      8.21956      6.31376      8.30960         0.001874      0.008475     -0.050552
O	      2.06353      6.39534      6.06050         0.001365      0.127385     -0.043474
O	      4.00037      8.38112      6.29446        -0.182239      0.010798     -0.297613
O	      4.16194      6.27675      8.29870         0.062769      0.441515     -0.231716
O	      6.13226      8.34740      8.22691        -0.119829      0.140306      0.147609
O	      6.29306      6.44534     10.20835        -0.168056      0.099337     -0.067551
O	      8.16070      8.29968     10.36086        -0.007042      0.047669      0.113377
