# total energy = -225.14031573 eV
 
CRYSTAL
PRIMVEC
0.012247 6.311287 6.211550 
6.342847 0.086146 6.135844 
4.282106 4.210582 0.005400 
PRIMCOORD
36 1
Li	      6.45729      6.43734     12.24272         0.029618     -0.015693     -0.004248
Li	      2.17922      8.28174      6.17265         0.027311      0.007510      0.004576
Li	      6.43051      8.35355     10.34368         0.061627      0.021066     -0.021640
Li	      2.04279      2.23501      4.11817        -0.018367     -0.032223      0.008838
Li	      0.06746      4.32491      4.20640        -0.020198      0.025730      0.042529
Li	      2.03070      6.21415      4.28890        -0.027694     -0.009565     -0.014269
Li	      6.34404      8.42681      6.12699        -0.043963      0.001255     -0.016704
Li	      4.19076      6.43291      6.08964        -0.091268      0.028788      0.019949
Li	      6.37752      6.35628      8.28064         0.027694     -0.013508      0.006199
Sc	      6.39133      4.31152      6.06455        -0.008635      0.006575     -0.037060
Sc	      8.45855      8.44310      8.32760         0.014599      0.008149      0.082263
Cr	      4.35846      6.35393     10.31319        -0.086861      0.002106     -0.005674
Cr	      4.23015      2.18094      6.12399         0.011349     -0.028281      0.043176
Co	      2.12061      0.07243      2.02642        -0.026895      0.016299     -0.154400
Co	      4.37847      8.44967      8.14128        -0.008136      0.018089     -0.392001
Co	      4.28363      6.28318      2.08321         0.018020     -0.119111     -0.047534
Co	      2.09788      4.16569      2.12017         0.012167      0.051200      0.035753
Co	      4.15705      4.27012      4.10888        -0.005715      0.112976     -0.181132
O	      1.96940      2.03538      2.05085         0.013332     -0.129570      0.021069
O	      4.40819      4.29140      2.16574         0.052280      0.002648      0.042322
O	      4.25723      2.22629      4.03829         0.017694      0.097187      0.066735
O	      6.51280      4.26468      3.99047        -0.038947      0.040790     -0.038127
O	      6.25242      2.19920      6.24968         0.015967      0.005759      0.085736
O	      8.49890      4.37789      6.14158         0.001799      0.001160      0.003584
O	      2.15679      4.20097      4.04101         0.022733     -0.026138      0.015838
O	      4.26875      6.11093      4.02043        -0.049901     -0.210014     -0.062581
O	      4.26155      4.21311      6.10146         0.003777     -0.022573      0.067873
O	      6.51172      6.33351      6.24000        -0.001403      0.003888     -0.032928
O	      6.30881      4.10644      8.18406         0.086197     -0.017156      0.043283
O	      8.64685      6.34743      8.14592         0.003934      0.003861     -0.012006
O	      2.12523      6.33261      6.42026         0.023084     -0.002807      0.161627
O	      4.26038      8.45062      6.37601         0.055850     -0.039810      0.360347
O	      4.14900      6.39418      8.30459        -0.075484      0.048708      0.010249
O	      6.37610      8.62446      8.28457        -0.014043      0.128509     -0.002150
O	      6.28600      6.39300     10.24939         0.008970      0.046577     -0.024322
O	      8.53872      8.58332     10.31021         0.009505     -0.012380     -0.075170
