# total energy = -211.10777236 eV
 
CRYSTAL
PRIMVEC
0.032707 6.209143 6.325293 
6.305522 0.009584 6.348884 
4.211925 4.162742 -0.001634 
PRIMCOORD
36 1
Li	      0.13924      6.17310      6.29363         0.042607      0.040407      0.019620
Li	      8.44895      8.27073     12.63389        -0.000787      0.004271     -0.024223
Li	      8.39597      4.16495      4.35114         0.009884      0.025178     -0.001670
Li	      4.35452      6.13483      2.24252        -0.026436      0.035859      0.063888
Li	      6.21252      6.26652      4.20253         0.029439     -0.021741     -0.058056
Li	      8.39457      6.17685      6.27038         0.001709      0.005992     -0.003575
Li	      2.19240      6.18427      4.31231         0.010042      0.024567      0.022297
Li	      2.05040      4.27641      6.15036        -0.001477      0.031621      0.038344
Li	      4.15541      6.23325      6.22320        -0.046335      0.000473      0.011121
Sc	      4.16889      8.30702      8.28528        -0.052328      0.013037     -0.069286
Sc	      4.26928      4.12238      8.40147         0.046578     -0.065108     -0.001534
Cr	      6.31728      2.13286      4.29922         0.013386     -0.082707      0.036970
Cr	      6.37888      6.18088      8.50708        -0.028220      0.059930      0.039899
Cu	      6.35403      4.17210      6.32491        -0.086751     -0.049847     -0.016452
Ni	      4.28954      8.24019      4.35456        -0.044530     -0.005628     -0.011431
Ni	      2.02772      0.06826      2.04137         0.082197     -0.063630      0.032838
Ni	      2.10806      4.14225      2.11797         0.080866     -0.055072     -0.029424
Ni	      4.20932      4.21385      4.24010        -0.093055      0.022697      0.011657
O	      8.20878      4.17427      6.41307         0.090413      0.014453     -0.082660
O	      2.12415      6.22867      6.50026         0.035531     -0.007021     -0.261118
O	      2.12906      2.04963      2.11628         0.001913      0.081786     -0.007433
O	      4.20308      4.17051      2.08815        -0.017385      0.013432     -0.066498
O	      4.40363      2.19563      4.14619         0.043400     -0.097413      0.006408
O	      6.24622      4.11399      4.00268         0.069448      0.012626      0.091071
O	      6.31648      2.27025      6.11860        -0.006742     -0.085238     -0.032749
O	      2.18876      4.13333      4.19781        -0.038838     -0.036789      0.036865
O	      4.18981      6.19517      4.24815         0.044270      0.027941     -0.003022
O	      4.43834      4.12983      6.32137        -0.084522     -0.027311      0.088858
O	      6.33080      6.03679      6.60755         0.020278      0.074102      0.006176
O	      6.33871      4.20364      8.72061        -0.083577      0.008215     -0.054528
O	      8.25920      6.20539      8.46874        -0.035797      0.113133      0.038974
O	      4.25778      8.31034      6.27818         0.011608      0.006767      0.138129
O	      4.36656      6.20693      8.47289         0.051329     -0.015838      0.037434
O	      6.36697      8.22314      8.51145         0.019946     -0.089303      0.020875
O	      6.30095      6.31319     10.45411        -0.019285      0.040949     -0.027302
O	      8.26142      8.30723     10.48914        -0.038781      0.045209      0.009536
