# total energy = -210.72000158 eV
 
CRYSTAL
PRIMVEC
0.035161 6.216294 6.392727 
6.177143 0.020814 6.406905 
4.121648 4.157243 0.010153 
PRIMCOORD
36 1
Li	      6.26211      6.23111     12.67483        -0.033644      0.035597     -0.083182
Li	      6.19393     10.31395      8.55825        -0.044876      0.044586      0.020816
Li	      4.26094      6.24325     10.68005        -0.025505     -0.079845      0.056230
Li	      6.10075      2.19658      4.25845         0.210610      0.004079      0.049225
Li	      6.17545      2.05824      8.47969         0.036176      0.042335     -0.080634
Li	      6.18479      4.16999      6.28245         0.037482     -0.132524     -0.011618
Li	      2.01806      6.19378      4.35309        -0.035951      0.005910      0.033206
Li	      6.18488      8.31203      6.51221        -0.047103      0.094716     -0.056616
Li	      6.18706      6.27268      8.56977         0.016748     -0.080318      0.186062
Sc	      6.21722      6.15404      4.29273        -0.287007     -0.037630     -0.437432
Sc	      8.18191      8.32569      8.57208         0.296751     -0.113581      0.321096
Cr	      8.14985      2.05680      6.37001        -0.022668      0.151930     -0.168649
Cr	      8.24084      4.23386      8.48366        -0.244810     -0.445969      0.133959
Cu	      4.24071      8.25145      8.53663        -0.121044      0.147740     -0.100150
Cu	      4.17082      6.24192      6.41134        -0.126031      0.053145      0.001452
Ni	      4.12763      4.16611      4.31729        -0.173059      0.229383      0.066977
Ni	      4.16278      2.08991      6.39112         0.222393     -0.043947      0.071081
Ni	      6.19280      4.20085     10.68166         0.057872     -0.149090     -0.118705
O	      2.13830      6.40559      6.44503         0.163008     -0.142758     -0.044915
O	      6.21238      6.05422     10.69417        -0.037946      0.373796     -0.060083
O	      2.12889      2.17651      2.02605         0.051473     -0.114559      0.110476
O	      3.94515      4.05347      2.27566        -0.013539      0.003206     -0.215626
O	      4.14066      2.12558      4.41975         0.005452     -0.281937     -0.140578
O	      6.11560      4.18505      4.23002         0.350684      0.163090     -0.028011
O	      6.31618      2.09533      6.39044         0.258764     -0.044940      0.100598
O	      8.25199      4.10115      6.57881         0.000999      0.137322      0.022780
O	      2.03664      4.17694      4.11149         0.229555     -0.072540     -0.093710
O	      4.11827      6.29282      4.37138         0.070250      0.023274      0.134101
O	      4.13755      4.19727      6.41947        -0.063626     -0.356024      0.191056
O	      6.19652      6.25338      6.34762        -0.409170      0.019465      0.165758
O	      6.31472      4.10883      8.71307         0.122745      0.029111     -0.648987
O	      8.29151      6.16841      8.40597        -0.017971      0.312693     -0.051582
O	      4.04189      8.28875      6.22774         0.040750      0.084538      0.837192
O	      4.17285      6.25594      8.40954         0.044297      0.103470     -0.095362
O	      6.19841      8.30262      8.54840        -0.109217      0.002283     -0.030170
O	      8.32970      8.32353     10.73768        -0.402843      0.033992     -0.036056
