# total energy = -211.44676954 eV
 
CRYSTAL
PRIMVEC
0.017683 6.316123 6.170897 
6.286528 0.036568 6.151719 
4.222580 4.229675 -0.006942 
PRIMCOORD
36 1
Li	      4.23888      4.24011      0.06719        -0.004480     -0.000751     -0.054341
Li	      2.15582      8.33743      6.24437        -0.023671     -0.019345     -0.034380
Li	      2.04597      0.02199      1.99233         0.043090     -0.044775      0.072465
Li	      2.24322      4.15644      2.09291        -0.027065     -0.023783     -0.000324
Li	      2.03912      2.18821      4.03406         0.073328     -0.031494      0.048927
Li	      4.20809      4.26028      4.01281         0.111901     -0.046841      0.068784
Li	      2.09500      4.30374      6.19253         0.021143      0.014427      0.033897
Li	      8.35504      8.47423      8.22782        -0.065357      0.031185     -0.018918
Li	      6.23128      6.48706      8.23018        -0.060060      0.046812     -0.047615
Sc	      8.36251      6.41576      6.23375        -0.080047      0.085226     -0.246054
Sc	      6.32103      4.25944      6.22545        -0.106844      0.062184     -0.112353
Cr	      4.22108      6.31056     10.21169        -0.221556      0.023965     -0.084811
Cr	      0.08692      4.20531      4.11015         0.175285      0.071563      0.176772
Cu	      4.17792      2.17815      2.00742        -0.081473      0.171388      0.010263
Cu	      6.35885      8.44704     10.22646        -0.098788     -0.049133      0.094504
Cu	      4.31689      6.22369      2.06807         0.072018     -0.065955     -0.004494
Cu	      4.17089      6.33072      6.17696         0.144069     -0.324995      0.036947
Ni	      8.39548      6.36804     10.25837        -0.052395      0.001331     -0.126724
O	      2.22108      6.31438      6.07580        -0.065597      0.030361      0.049611
O	      4.20058      8.34252      6.10831        -0.084975      0.063244     -0.483971
O	      4.20263      6.44251      8.17538         0.022049      0.173011      0.407600
O	      6.21973      8.45434      8.29512        -0.009845      0.067807      0.188819
O	      2.10288      2.12515      2.08655         0.000165     -0.009434     -0.120728
O	      4.21831      4.22541      2.05525         0.014589     -0.033259     -0.015633
O	      4.29876      2.05510      4.01835        -0.483474     -0.353190      0.264922
O	      6.41295      4.10522      4.12083         0.251244      0.364113      0.072232
O	      6.28440      2.14000      6.14189         0.064373     -0.037856     -0.500785
O	      8.37964      4.33568      6.03636         0.084995      0.014814     -0.015590
O	      1.90447      4.26590      4.14201        -0.200461      0.010149     -0.044460
O	      4.21337      6.43673      4.13476         0.001542      0.017091      0.100450
O	      4.22874      4.27380      6.13980         0.025878     -0.158867      0.027146
O	      6.31866      6.31015      6.16728        -0.056438      0.054707      0.055497
O	      6.30123      4.11045      8.35648        -0.004558      0.107954      0.032105
O	      8.54490      6.34671      8.23415         0.030751     -0.061624      0.119849
O	      6.26204      6.27291     10.25126        -0.063288     -0.197708     -0.005812
O	      8.45957      8.52948     10.23010         0.653952      0.047678      0.056202
