# total energy = -211.79377465 eV
 
CRYSTAL
PRIMVEC
0.026669 6.368171 6.324148 
6.318956 0.051566 6.299386 
4.205531 4.221553 0.041450 
PRIMCOORD
36 1
Li	      4.30730     10.47084      6.35705         0.037649      0.005657      0.033630
Li	      6.32853     10.54092      8.45146         0.059142      0.033984     -0.008732
Li	      6.25172      2.20367      4.14940        -0.008663      0.099030      0.033506
Li	      6.35385      6.30012      4.34149        -0.004137     -0.059260      0.018033
Li	      4.27832      4.24274      4.27063         0.081652     -0.012923      0.051910
Li	      4.14381      2.21582      6.25701        -0.039788     -0.006919      0.028986
Li	      2.09342      4.36965      6.35459         0.020715      0.037431      0.037933
Li	      4.32735      6.33617      6.28934        -0.005863      0.003415      0.005016
Li	      6.29567      6.49207      8.33581         0.002042      0.058314     -0.067552
Sc	      2.16768      8.40273      6.33561        -0.003236     -0.016334      0.114508
Sc	      2.14655      4.23694      2.15432        -0.177662     -0.350790     -0.390070
Cr	     10.48282      6.37278      8.45126         0.345024      0.151950     -0.236069
Cr	      8.38061      6.38861     10.54081         0.069783     -0.015576      0.269988
Cu	      4.35280      8.47011      8.47600         0.149016      0.140277     -0.071699
Cu	      4.24153      0.09876      4.23039        -0.210454      0.318965     -0.037931
Cu	      6.30096      4.28776      6.29866        -0.397576     -0.159878     -0.224788
Cu	      4.23219      8.46424      4.29765         0.237031     -0.263027      0.127498
Cu	      4.18117      4.35321      8.35204         0.021265      0.114157     -0.061419
O	      4.23971      4.29955      6.43460         0.026783     -0.074151      0.188571
O	      6.32282      6.13313      6.31699         0.138218      0.309953      0.015888
O	      4.22738      6.56128      8.57983         0.100363     -0.153941     -0.087986
O	      6.52747      8.52768      8.42879        -0.253970      0.003520     -0.014420
O	      6.32386      6.25332     10.56536         0.081134     -0.151834     -0.046747
O	      1.95253      2.18273      2.06378        -0.334358     -0.320008      0.246802
O	      4.16745      4.23991      2.17902         0.278977      0.103086      0.010473
O	      4.27107      2.07010      3.99830         0.026315      0.161031      0.549561
O	      6.42822      4.25630      4.39943         0.077979     -0.008895     -0.102031
O	      6.32704      2.32736      6.38308        -0.149410     -0.194209      0.042729
O	      8.42230      4.23588      6.30979         0.220106      0.187166     -0.162148
O	      2.02861      4.32637      4.19537        -0.202628      0.019023      0.525762
O	      4.11371      6.45194      4.15330        -0.316691      0.111117     -0.143421
O	      6.20629      4.21632      8.25891        -0.092348     -0.262249      0.312952
O	      8.47189      6.30600      8.52052         0.087555      0.415828      0.013320
O	      2.09929      6.42772      6.21159        -0.135243     -0.278356     -0.120198
O	      4.24650      8.42001      6.61043         0.102603      0.122017     -0.464492
O	      8.48886      8.48788     10.46260         0.168675     -0.067573     -0.387363
