# total energy = -218.53981608 eV
 
CRYSTAL
PRIMVEC
-0.000520 6.313962 6.209154 
6.347417 -0.022854 6.231841 
4.213435 4.206031 0.003303 
PRIMCOORD
36 1
Li	     10.52848      4.22720      6.28967         0.180601     -0.043054     -0.077779
Li	      2.09182      2.11644      0.04498        -0.017197     -0.178793     -0.046567
Li	      4.24952      2.05800      2.15361         0.015480      0.009817     -0.056648
Li	      6.23462      2.17578      4.07891         0.013761     -0.103787     -0.015162
Li	      6.36548      6.21607      4.15489        -0.018210      0.031895      0.024678
Li	      4.24968      2.13538      6.20321         0.010797      0.020157     -0.054010
Li	      6.19736      4.27213      6.26226         0.013162     -0.021137      0.056324
Li	      4.32625      6.20810      6.30829        -0.136419      0.063197     -0.065154
Li	      4.22246      4.26180      8.21620        -0.009412      0.017589     -0.008138
Sc	      8.38465      4.30948      4.26648         0.189915     -0.026939      0.006565
Sc	      6.43176      8.31017      6.23451        -0.094433      0.497240     -0.203438
Cr	      8.47615      4.14493      8.23568        -0.018543      0.056292      0.147533
Cr	      4.16009      8.40196      4.18844        -0.212013      0.020027      0.212206
Fe	      6.35849      2.06550      8.22236        -0.019622      0.075706      0.333486
Co	      8.43231      6.36386     10.46625        -0.038475     -0.644734     -1.122383
Cu	      2.18948      6.27848      8.24697         0.109372      0.142309     -0.207438
Ni	      4.32328      4.08765      4.16936        -0.145767      0.138795      0.056014
Ni	      6.29569      6.32146      8.26651         0.046552     -0.034686      0.154827
O	      6.31101      2.08953      6.46746        -0.099219      0.055547     -0.382429
O	      1.96752      2.13911      2.06514         0.156932      0.085404      0.051034
O	      4.15748      4.27513      2.12479        -0.053954     -0.080807     -0.023304
O	      4.22843      2.08160      4.16402        -0.029330     -0.079799      0.008361
O	      6.33920      4.17716      4.02842         0.028401     -0.005522      0.091062
O	      8.47898      4.15836      6.29875        -0.063744      0.019121     -0.037802
O	      2.00565      4.24798      4.07105        -0.103529      0.017505     -0.016879
O	      4.13838      6.40144      3.97544         0.044205      0.024866      0.063774
O	      4.21427      4.21159      6.15033         0.134978     -0.082470      0.107658
O	      6.32364      6.30559      6.32268         0.128030     -0.222611     -0.127814
O	      6.45031      4.17242      8.40784         0.063442     -0.020640     -0.002126
O	      8.48870      6.18110      8.43686        -0.070692      0.075409      0.436505
O	      2.09584      6.30167      6.09075        -0.112183      0.003196      0.429517
O	      4.27843      8.38003      5.98987        -0.011303      0.080192     -0.108687
O	      4.21424      6.31746      8.31268        -0.047346     -0.010560      0.081883
O	      6.34388      8.43131      8.26950         0.014717      0.068940      0.125282
O	      6.36202      6.19846     10.29133        -0.111424     -0.016809      0.120383
O	      8.62563      8.37640     10.33710         0.262469      0.069142      0.048669
