# total energy = -95.74734120 eV
 
CRYSTAL
PRIMVEC
-0.000629 2.111459 2.112405 
2.115029 -2.111923 -0.000165 
13.259961 11.127858 0.028129 
PRIMCOORD
16 1
Li	      2.55432      0.43093      1.67393         0.022279      0.023248     -0.021949
Li	      2.26077      2.25296     -0.14917        -0.016955     -0.015696      0.017585
Li	      6.55611      6.54496     -4.43479         0.010563      0.008006     -0.009966
Li	      8.37381      6.25223     -6.25486        -0.015313     -0.015324      0.013055
Ti	     11.00166      8.86444     -6.75916        -0.066784     -0.066634      0.073150
Ti	     13.19203      8.94513     -8.94997         0.068763      0.067103     -0.068092
Ni	      4.39253      2.27313     -2.27813        -0.010685     -0.011248      0.009999
Ni	      6.53471      4.41498     -2.30467         0.004726      0.004306     -0.005536
O	     11.03990      8.90506     -8.91036        -0.001085     -0.001272     -0.001650
O	      8.64897      6.52455     -4.41509        -0.007160     -0.006261      0.006678
O	     11.14753      6.89551     -6.90172         0.110048      0.107988     -0.113136
O	      6.39477      4.27777     -4.27815         0.082455      0.085459     -0.084557
O	      4.53074      2.41005     -0.30373        -0.076165     -0.078111      0.078876
O	      4.40714      4.39876     -2.29142         0.001442     -0.000424      0.000849
O	     13.04649     10.91416     -8.80695        -0.112346     -0.107394      0.109833
O	      2.28008      0.15955     -0.16676         0.006216      0.006255     -0.005141
