# total energy = -219.48406191 eV
 
CRYSTAL
PRIMVEC
0.039855 6.308250 6.309623 
6.312956 0.046005 6.303586 
4.218251 4.211118 0.020989 
PRIMCOORD
36 1
Li	      4.28233     10.42934      6.38681        -0.022344     -0.006894     -0.022292
Li	      2.13062      6.38136      8.33063        -0.002405      0.081307     -0.046884
Li	      4.10780      2.17009      2.07079        -0.139442      0.022245      0.009405
Li	      2.19198      4.13614      2.09258         0.007925     -0.103937     -0.072658
Li	      2.09821      2.17192      4.22589        -0.019878      0.021887      0.004613
Li	      8.40751      6.34250      6.33667         0.023306     -0.035911     -0.016171
Li	      4.28628      8.37419      4.33867        -0.013041      0.019643      0.072017
Li	      2.20057      6.26368      4.24252         0.001641      0.044637      0.007431
Li	      4.23594      6.37659      6.26712        -0.015366      0.076218     -0.016765
Sc	      6.31366      2.13958      4.28094         0.016057     -0.111796      0.103679
Sc	      6.40222      6.29784      8.35731         0.059322     -0.052556      0.099830
Cr	      4.15576      4.31713      4.18399         0.143015      0.021385     -0.089250
Cr	      4.24970      4.22556      8.36290         0.029932      0.018200      0.091979
Fe	      4.19883      0.10171      4.19487        -0.017430     -0.021855      0.056959
Co	      2.25930      8.28481      6.41536        -0.037725      0.013534      0.051381
Cu	      6.33866      4.26333      6.29980         0.052062     -0.091560      0.055884
Cu	      2.05280      4.27571      6.26861        -0.011981      0.003622      0.196493
Ni	      4.24736      6.28344      2.12507         0.020019     -0.018499     -0.015573
O	      2.11788      6.46153      6.30554        -0.001662     -0.079150     -0.049564
O	      4.21344      8.43586      6.35306         0.083494     -0.013524     -0.008576
O	      2.05104      2.10298      1.98707         0.115450      0.029128      0.088260
O	      4.19583      4.21155      2.34166        -0.041793     -0.124777      0.138590
O	      4.24813      2.15859      4.22830        -0.008265      0.138177      0.026671
O	      6.28998      4.25512      4.29945        -0.106866      0.047156     -0.122418
O	      6.39768      2.19944      6.33482        -0.054023     -0.049677     -0.186806
O	      8.35013      4.09671      6.21562         0.126399      0.019215      0.040859
O	      2.22281      4.23801      4.35138        -0.044402     -0.020535     -0.034307
O	      4.22968      6.15125      4.19622        -0.001512     -0.045016      0.171430
O	      4.26514      4.24131      6.27660        -0.106451      0.008904     -0.079599
O	      6.33112      6.29194      6.31871        -0.005699      0.114119     -0.062471
O	      6.27009      4.21316      8.30976         0.024015      0.112039      0.051705
O	      8.47295      6.43120      8.41305        -0.137665     -0.033413     -0.030651
O	      4.26595      6.24339      8.51607         0.032058      0.033742     -0.186157
O	      6.45529      8.42810      8.34899        -0.044870      0.005302     -0.036955
O	      6.24225      6.40379     10.48518         0.119797      0.043377     -0.099888
O	      8.45222      8.53429     10.43229        -0.021674     -0.064739     -0.090204
