# total energy = -219.01505762 eV
 
CRYSTAL
PRIMVEC
0.062239 6.413276 6.274996 
6.308317 0.073758 6.262616 
4.251342 4.312695 0.003727 
PRIMCOORD
36 1
Li	      4.38922      8.63365      8.31565        -0.008672     -0.019205     -0.187864
Li	      6.34359      8.66286     10.35763         0.106284     -0.018418      0.003472
Li	      8.36957      4.46411      8.33101        -0.048912     -0.071477      0.155286
Li	      4.27547      4.23557      4.31266        -0.180132      0.104658      0.000137
Li	      8.40541      6.53619     10.42445        -0.000495     -0.007385      0.002134
Li	      2.12486      4.42534      6.35334        -0.069146     -0.004070     -0.144117
Li	      4.23739      6.41225      6.34526         0.049498      0.057079     -0.026227
Li	      8.38598      8.66929      8.29963         0.067829      0.059620      0.158843
Li	      6.51930      6.46623      8.30538        -0.044061     -0.060641     -0.017862
Sc	      4.28957      6.47814     10.40332         0.180556     -0.435813     -0.026170
Sc	     10.47718      6.50351      8.36044         0.263048      0.293014      0.149446
Cr	      6.37999      6.47817      4.22907        -0.397920      0.350568      0.008115
Cr	      0.09489      4.26168      4.16759        -0.197752      0.065889     -0.086903
Fe	      2.23338      8.47055      6.23021         0.253536      0.114394     -0.184437
Co	      6.30193      4.40677      6.31579         0.249597     -0.556503      0.504242
Cu	      0.14318      6.33681      6.24777        -0.221621     -0.108893     -0.101177
Cu	      6.41120     10.68819      8.34507         0.034641      0.144110      0.172493
Cu	      4.20081      2.27937      6.29970        -0.127653      0.103898      0.053198
O	      4.48971      4.38750      6.29768        -0.305163     -0.277551      0.002587
O	      2.09397      6.58442      6.11490        -0.094301     -0.257405      0.054055
O	      6.38643      8.82954      8.36095        -0.035241     -0.174047     -0.023564
O	      2.11710      1.92494      2.13210        -0.018527      0.038239      0.011569
O	      4.41810      4.31634      1.93792        -0.044956     -0.120277     -0.009180
O	      4.14521      2.16754      4.34062         0.185086      0.181070      0.211805
O	      6.34915      4.46178      4.42141         0.124304     -0.164458     -0.207817
O	      6.40576      2.47040      6.24951        -0.247757     -0.255767     -0.003767
O	      8.36060      4.14802      6.31563         0.040685      0.416863      0.037529
O	      2.01140      4.14777      4.17857         0.960483     -0.080636      0.020647
O	      4.36768      6.55732      4.13735         0.006365     -0.361086     -0.001542
O	      6.41512      6.27987      6.25526         0.178123      0.625218      0.054783
O	      6.35805      4.30490      8.41852         0.070159     -0.041177     -0.918538
O	      8.48055      6.46491      8.24240        -0.209203      0.080983     -0.315435
O	      4.21041      8.50714      6.11391        -0.052778      0.035540      0.789717
O	      4.05247      6.45596      8.41246         0.140759      0.024653     -0.130574
O	      6.35102      6.37794     10.51342         0.069907      0.234572      0.011912
O	      8.65954      8.68363     10.48063        -0.676572      0.084441     -0.016797
