# total energy = -222.59440619 eV
 
CRYSTAL
PRIMVEC
0.028634 6.284566 6.193633 
6.358725 0.051984 6.170930 
4.264620 4.199487 0.009625 
PRIMCOORD
36 1
Li	      8.39584      2.11306      6.21110        -0.056378     -0.025074      0.040255
Li	      6.39843      4.22606      2.13113        -0.019155      0.013369     -0.012543
Li	      6.38103      2.22464      4.14349        -0.050456     -0.038246      0.035027
Li	      0.05013      2.15003      2.10911        -0.027878      0.046897     -0.079148
Li	      6.33320      6.17782      4.14020         0.017202     -0.010280      0.029425
Li	      4.38871      4.32743      4.10442         0.040068      0.039042      0.005225
Li	      6.34085      4.19194      6.16082        -0.038620     -0.041022      0.048760
Li	      4.21892      6.22899      6.12789        -0.042612      0.025667      0.003871
Li	      4.23993      4.26308      8.22693        -0.023522     -0.019306     -0.032791
Sc	      4.31512      2.24966      6.10853         0.095825      0.016577     -0.030601
Sc	      6.32723      6.34718      8.23301         0.086929     -0.062561     -0.107541
Cr	      0.09224      6.29968      6.20113         0.051877     -0.006988     -0.042996
Cr	      2.16002      4.12601      2.09775        -0.060981      0.187280     -0.014766
Fe	      8.25764      4.13376      4.14061         0.088005     -0.033573      0.161528
Co	      8.53080      6.37154     10.30320         0.019697     -0.028476      0.042841
Co	      2.16883      4.24211      6.15520         0.019870      0.028817      0.006729
Cu	      4.23595      2.11209      2.07959        -0.011484     -0.007465     -0.004625
Ni	      4.26013      8.33024      4.14231         0.036572      0.066331      0.017627
O	      2.23042      2.19959      2.09310         0.052896     -0.130637      0.011840
O	      4.18048      4.11078      2.00375         0.025663     -0.032718      0.099691
O	      4.29113      1.95035      4.08927         0.034176      0.038986      0.069870
O	      6.40851      4.18727      4.18641        -0.125221      0.008338     -0.048886
O	      6.37173      2.02335      6.21236        -0.110046      0.098944      0.013410
O	      8.62757      4.24018      6.20473         0.025222     -0.004470      0.033612
O	      2.09240      4.36013      4.14383         0.059391      0.080237      0.077330
O	      4.06078      6.38464      4.13452        -0.031892     -0.045619     -0.048810
O	      4.13070      4.24788      6.17449        -0.100981     -0.033491     -0.007177
O	      6.43922      6.46763      6.17983         0.002755      0.057103      0.073761
O	      6.51682      4.25324      8.23765        -0.011967      0.045614     -0.026336
O	      8.48392      6.26139      8.30492        -0.056807      0.000299      0.058057
O	      2.09058      6.19721      6.06256         0.049331     -0.043827     -0.049987
O	      4.47141      8.47483      6.20317         0.070840     -0.074482      0.026051
O	      4.27062      6.35326      8.35104         0.020292     -0.021188     -0.166244
O	      6.33556      8.44174      8.09161        -0.020992     -0.007303     -0.058414
O	      6.51361      6.25694     10.36581         0.017286      0.038324     -0.105736
O	      8.57684      8.40210     10.31689        -0.024907     -0.125097     -0.018311
