# total energy = -221.60000599 eV
 
CRYSTAL
PRIMVEC
0.000191 6.186983 6.492222 
6.260722 0.012893 6.479801 
4.170797 4.113905 0.010460 
PRIMCOORD
36 1
Li	      6.12827      0.07047      6.36108         0.070440      0.050799     -0.003357
Li	      8.23528      2.22420      6.46318        -0.037556     -0.014532      0.031490
Li	      2.17344      6.16384      8.61883        -0.012259      0.004576      0.002408
Li	      8.36107      4.10362      4.38941        -0.055075      0.075234      0.017166
Li	      8.29694      4.16060      8.46304        -0.015558      0.093038      0.080721
Li	      6.35103      4.10702      6.53299        -0.055226     -0.025119     -0.032490
Li	      4.15692      6.09381      6.62890        -0.002130      0.009412     -0.037515
Li	      4.15461      4.27090      8.69355        -0.028316     -0.094155      0.015343
Li	      6.19501      6.17587      8.60703         0.110867     -0.006227      0.026711
Sc	      4.13663      8.19701      8.49855         0.068608     -0.070290     -0.029868
Sc	      6.28787      6.05766      4.36154         0.143126     -0.116596     -0.023967
Cr	      4.16773      6.16407      2.17717        -0.289464      0.001612     -0.421688
Cr	      2.14523      4.15712      6.47978        -0.016586      0.322943      0.270286
Fe	     10.26362      8.41433     10.86333         0.194529     -0.123540     -0.003128
Co	      4.18914      4.08598      4.34870         0.063371     -0.070546     -0.038257
Co	      8.35712      6.21038     10.77538        -0.081028     -0.099061      0.288660
Cu	      6.29271      8.23796     10.80649        -0.063061      0.031554     -0.030275
Cu	      8.35339      6.13686      6.58997         0.080277      0.036966     -0.015381
O	      8.32105      4.22433      6.48879         0.001202     -0.121346     -0.025572
O	      8.31313      8.25855     10.89045        -0.041452     -0.822572     -0.043818
O	      2.04509      2.04705      2.21686        -0.076386      0.037122      0.089594
O	      4.19197      4.22159      2.39880         0.038920      0.090722      0.097551
O	      4.23883      2.15120      4.16818        -0.092444      0.093316     -0.174425
O	      6.12265      4.00944      4.39129         0.003575      0.140856     -0.029747
O	      6.18609      2.05332      6.82767        -0.020384      0.024942      0.487796
O	      2.18315      4.08468      4.45676        -0.096355      0.621039     -0.094798
O	      4.18134      6.06795      4.27055        -0.560370      0.083910      0.021059
O	      4.12961      4.03622      6.31799        -0.031921     -0.023098     -0.161670
O	      6.32400      6.29794      6.42787        -0.115317      0.044270     -0.131539
O	      6.28421      3.95840      8.93797        -0.005106     -0.067002      0.008990
O	      8.44727      6.19185      8.88776         0.141432      0.027662      0.265293
O	      2.13949      6.04283      6.23516        -0.012272     -0.205234     -0.125149
O	      4.26970      8.27006      6.36647         0.055962     -0.032865     -0.073189
O	      4.17793      6.25040      8.62048         0.024268      0.031628      0.002218
O	      6.26147      8.29242      8.32740        -0.025971      0.012497     -0.245119
O	      6.31462      6.24088     10.76015         0.737660      0.058084      0.035665
