# total energy = -224.14343600 eV
 
CRYSTAL
PRIMVEC
0.003988 6.184916 6.549065 
6.178679 0.039220 6.514225 
4.143570 4.123613 0.001790 
PRIMCOORD
36 1
Li	      4.09302      4.08542      0.18294        -0.168967      0.090253     -0.083384
Li	      2.06722      2.08244      0.25989        -0.093027      0.149412     -0.232843
Li	      3.94411      2.10994      2.27758         0.227790     -0.081648     -0.062593
Li	      8.23926      4.20668      4.46201        -0.028219     -0.021734      0.182417
Li	      6.23065      2.08937      8.55139        -0.185451      0.171713     -0.159508
Li	      2.09484      4.01430      2.09248        -0.179381      0.277614     -0.106150
Li	      2.12061      2.04980      4.14196        -0.036483     -0.026916      0.274386
Li	      8.31881      6.13542      6.62320         0.109805     -0.042421     -0.021445
Li	      8.30157      6.21105     10.75604        -0.023128      0.019812     -0.043776
Sc	      6.23405      8.22709     10.97927         0.094238      0.084055      0.814001
Sc	      2.04494      4.16729      6.47847        -0.158258     -0.383576      0.044643
Cr	      4.09187      6.22095      6.53697         0.356545     -0.047648     -0.266545
Cr	      6.22746      6.18375      8.73597         0.094606     -0.317797      0.019015
Fe	      4.08805      4.11648      4.13673         0.380036      0.266538      0.837997
Co	      6.26179      4.12787      6.54361        -0.576523      0.149774      0.220230
Co	     10.27873      8.23983     10.86350         0.024724      0.377797      0.031071
Co	      4.14275      4.13472      8.68302         0.327578     -0.245001      0.024579
Cu	      2.02997      0.13312      2.15048         0.138708     -0.298806     -0.030385
O	      2.05110      2.00888      2.20128         0.010915     -0.418914     -0.058778
O	      4.19525      4.15290      2.24253         0.230043      0.026014     -0.311802
O	      4.20286      2.19126      4.31833        -0.192198     -0.091717     -0.222019
O	      6.13114      4.16848      4.61147        -0.314133      0.023036     -0.361186
O	      6.20187      2.25021      6.48447         0.155297     -0.612526     -0.287325
O	      8.05800      4.16788      6.53718         0.660953     -0.118494      0.219321
O	      2.13835      4.11392      4.42762        -0.157709     -0.043368     -0.252122
O	      4.15469      6.25730      4.51316        -0.040861     -0.315914      0.040075
O	      4.22695      4.19517      6.65563        -0.408067      0.071949      0.025932
O	      6.12899      6.10854      6.70630        -0.057421      0.533247      0.060571
O	      6.09391      4.19023      8.66202        -0.192776      0.006086     -0.354830
O	      8.18597      6.33714      8.68124        -0.105851      0.132805      0.091347
O	      2.11886      6.16532      6.49086         0.032536      0.239120      0.256325
O	      4.13698      8.21246      6.42807         0.210738      0.009662      0.430473
O	      4.13498      6.11898      8.58055        -0.330030      0.127479     -0.093085
O	      6.32153      8.24604      8.71701        -0.049278      0.430689     -0.104189
O	      6.18569      6.11236     10.76195        -0.075146     -0.057146     -0.283130
O	      8.31570      8.29525     10.59726         0.318398     -0.063427     -0.237286
