# total energy = -224.40678618 eV
 
CRYSTAL
PRIMVEC
0.012305 6.153918 6.315222 
6.328167 0.012331 6.314937 
4.231774 4.115401 -0.004707 
PRIMCOORD
36 1
Li	      0.10704      6.06236      6.26023         0.064008      0.002546     -0.001440
Li	      2.20204      6.10537      8.28554         0.007589      0.069612     -0.026929
Li	      4.30297      6.10765     10.46105         0.048394      0.038872     -0.040824
Li	      8.33901      4.20353      8.35442        -0.004456     -0.037864     -0.033971
Li	      6.36029      4.23668     10.51973         0.041014      0.003194      0.004020
Li	      2.06183      6.13517      4.30157        -0.004055      0.013429      0.073108
Li	      4.12916      6.21752      6.42707        -0.071283      0.008838     -0.011040
Li	      4.25130      4.16849      8.39286         0.025859     -0.014468     -0.029024
Li	      6.36042      6.11581      8.41220         0.006788     -0.010199      0.026476
Sc	     10.45872      6.19466      8.37833        -0.082070      0.038812      0.081049
Sc	      2.15085      2.04065      4.17990         0.047356     -0.015866     -0.087782
Cr	      2.18227      8.18798      6.30873         0.260558      0.003922      0.086458
Cr	      6.43706      8.11129     10.46731         0.018215      0.046351     -0.139373
Fe	      4.18228      4.14964      4.22029         0.062192     -0.046330      0.055851
Co	      4.29052      8.12364      8.33440         0.008894      0.947191      0.410138
Co	      8.45422      6.12439      6.32804        -0.018372     -0.100115      0.034118
Co	      6.33461      4.12445      6.35114         0.033481      0.091040     -0.056044
Ni	      6.33925      8.30774      6.38913        -0.040361     -0.042079      0.096918
O	      2.10445      2.05578      2.06014         0.262624     -0.093435     -0.107596
O	      4.20099      4.02277      2.24439         0.000810     -0.514286     -0.217587
O	      4.32854      2.08441      4.31977         0.055395     -0.068809      0.047924
O	      6.26342      4.02803      4.37023        -0.020854     -0.016309      0.038715
O	      6.31197      2.13252      6.24067        -0.011649     -0.005735      0.033972
O	      8.26765      4.14490      6.29525        -0.112891     -0.002431      0.001028
O	      2.19409      4.07987      4.35735        -0.027523     -0.007451     -0.206399
O	      4.32056      6.12821      4.14648        -0.009675      0.024514     -0.024230
O	      4.30503      3.97197      6.27594         0.102455      0.012604      0.021427
O	      6.52286      6.08567      6.29243         0.003207     -0.095400     -0.043957
O	      6.30776      4.10569      8.28262        -0.040110     -0.039030     -0.003873
O	      8.46063      6.16120      8.23105         0.023893      0.010199     -0.093577
O	      2.12375      6.22086      6.30961        -0.062598      0.160365     -0.011621
O	      4.18605      8.24539      6.33068        -0.224987     -0.105014     -0.000014
O	      4.21747      6.33762      8.45195         0.077264     -0.024974     -0.165354
O	      6.32312      8.26012      8.49361        -0.351908     -0.253945      0.283580
O	      6.31934      6.33249     10.52768         0.030662      0.014414      0.029253
O	      8.28818      8.24384     10.60909        -0.097867      0.007839     -0.023402
