# total energy = -216.80805955 eV
 
CRYSTAL
PRIMVEC
0.041428 6.186075 6.404045 
6.287830 0.022548 6.423563 
4.207867 4.153081 -0.001053 
PRIMCOORD
36 1
Li	      4.26387     10.28613      6.38605         0.008244     -0.004540      0.016005
Li	      8.35256      2.16260      6.36130        -0.009963      0.001183     -0.026639
Li	      6.32664      4.13336      2.26842         0.027302     -0.042428      0.095918
Li	      8.30717      4.09635      4.26458         0.049508     -0.030978     -0.030080
Li	      6.26858      6.09240      4.24582        -0.065332     -0.154259      0.042590
Li	      4.36691      4.14496      4.26530         0.034876      0.002470      0.008973
Li	      6.37724      4.10451      6.31611         0.053573      0.011989     -0.063724
Li	     10.48038      8.33106     10.75567        -0.050135      0.035774      0.015234
Li	      4.19330      4.22387      8.58891        -0.041036      0.002273      0.004335
Sc	      2.11438      4.05622      2.10378        -0.014658     -0.022209     -0.023621
Sc	      4.21249      2.10713      6.29108         0.000244     -0.021601     -0.012657
Cr	      0.03324      2.04629      2.12758         0.095006      0.034710      0.101892
Cr	      2.15448      6.20761      4.28150         0.000581      0.189465     -0.133849
Fe	      4.22719      6.19969      6.51079        -0.025900      0.038273     -0.170539
Cu	      6.37463      8.30000     10.64164         0.119985     -0.171884     -0.075392
Cu	      2.08959      4.15840      6.39834        -0.014563      0.015969     -0.115563
Ni	      4.27154      8.24749      8.55561        -0.127575      0.113567      0.044123
Ni	      6.28059      6.21476      8.55138         0.049227     -0.133583     -0.031697
O	      6.34186      3.95211      4.31324        -0.008575      0.215232      0.025233
O	      6.28467      8.23800      8.37004         0.126311      0.162576     -0.031728
O	      2.03966      2.03639      2.25018        -0.124231      0.053094      0.045676
O	      4.20459      4.28381      2.21557        -0.034709      0.101764      0.053258
O	      4.40328      2.07626      4.23994        -0.078563     -0.015804      0.084782
O	      6.28364      2.10968      6.71884        -0.013425      0.001117      0.100156
O	      8.42382      4.23095      6.50045        -0.001086      0.003475      0.078047
O	      2.04982      4.35257      4.28149        -0.017210     -0.104944      0.092947
O	      4.05563      6.27213      4.19713         0.005408     -0.006479     -0.052889
O	      4.13519      4.20615      6.36890         0.165309      0.041075     -0.061717
O	      6.29100      6.26327      6.36467         0.007647     -0.292886     -0.100341
O	      6.31616      4.03678      8.65083         0.042643     -0.113436      0.019922
O	      8.45674      6.23194      8.61222         0.162563     -0.026313     -0.042110
O	      2.20341      6.16179      6.22566        -0.020169      0.275446      0.098848
O	      4.28349      8.22268      6.43807        -0.126867     -0.108492     -0.056300
O	      4.26630      6.21392      8.46143        -0.124064     -0.084040      0.029078
O	      6.47886      6.38365     10.61529        -0.068682     -0.005427      0.088700
O	      8.27143      8.17976     10.71608         0.018315      0.039850     -0.016874
