# total energy = -215.87790008 eV
 
CRYSTAL
PRIMVEC
0.031385 6.350526 6.162228 
6.386594 0.032133 6.161577 
4.270567 4.245945 0.008385 
PRIMCOORD
36 1
Li	      6.32866      4.26635      2.13985        -0.087387     -0.087336      0.003804
Li	      6.42410      8.55093     10.20788        -0.011773     -0.029942     -0.055914
Li	      4.26397      6.46514      2.19573        -0.002051      0.220089     -0.047751
Li	      8.40006      4.28576      8.31723        -0.049189     -0.013188     -0.055873
Li	      6.34509      6.23631      4.06112         0.032808     -0.017412      0.063859
Li	      4.41770      4.32622      4.08366         0.123761     -0.025702     -0.175058
Li	      6.37523      4.30401      6.19950         0.133870      0.111848      0.083539
Li	      6.41280      4.20093     10.16479        -0.109260      0.028976     -0.061802
Li	      4.45516      4.18590      8.22289         0.125949      0.031608      0.157511
Sc	      8.44023     10.54400     10.19110         0.297058      0.042364      0.054267
Sc	      4.38349      2.19669      6.20256         0.007886     -0.529240     -0.140054
Cr	      4.23331      2.19446      2.06125         0.189335      0.430302      0.104284
Cr	      2.17806      4.22727      6.08611        -0.060384     -0.055059      0.194534
Fe	      8.38353      2.15519      6.19999         0.284069      0.203835      0.051704
Cu	      6.41573      6.39769     12.28956        -0.385813     -0.120752      0.131632
Cu	      8.57187      6.40462     10.24909        -0.258346      0.070817     -0.367377
Cu	      4.29985      6.29364      6.11778         0.159029      0.297361      0.181945
Ni	      6.45100      6.34134      8.24533         0.017711      0.117466     -0.153229
O	      2.10101      4.37616      4.27704        -0.113122     -0.245698      0.141573
O	      4.17566      6.35424      4.18610         0.185535     -0.154171      0.160499
O	      6.40696      4.40811      8.20416        -0.017502     -0.588921     -0.082845
O	      2.34759      2.08307      1.97942        -0.186410     -0.043764      0.023515
O	      4.31228      4.02084      1.97534        -0.163439     -0.122270      0.250149
O	      4.28682      2.08873      4.05285         0.054593      0.041840      0.088277
O	      6.47166      4.24388      4.10328        -0.275390     -0.014930      0.157003
O	      6.46496      2.20249      6.29904        -0.274216      0.054888     -0.063086
O	      8.64230      4.24413      6.13743         0.151513     -0.029461      0.074680
O	      4.09218      4.27594      6.19275        -0.250668      0.289381      0.044051
O	      6.55598      6.54640      6.16173        -0.102427     -0.109027     -0.252309
O	      8.50732      6.40176      8.26744         0.316900      0.064548      0.027283
O	      1.97898      6.30719      6.11970         0.223341      0.054673      0.026032
O	      4.32199      8.35160      6.22564         0.238090      0.002075     -0.253090
O	      4.36214      6.51078      8.12780        -0.256696     -0.200702     -0.190477
O	      6.22657      8.43681      8.06810         0.075404      0.093149     -0.195508
O	      6.46004      6.38959     10.29352         0.023615      0.019272      0.047131
O	      8.53747      8.43798     10.39163        -0.036393      0.213084      0.027100
