# total energy = -91.68842529 eV
 
CRYSTAL
PRIMVEC
-0.000520 2.070369 2.070768 
8.328529 -4.242496 4.241570 
2.041187 2.105159 -4.176906 
PRIMCOORD
16 1
Li	      2.27890      1.96048      0.11344         0.045975     -0.011202      0.009790
Li	      4.08998      2.02588     -2.02718        -0.023112     -0.037807      0.038512
Li	      4.06040      0.04862     -0.04558        -0.032285      0.028312     -0.041478
Li	      8.27974     -0.07702      0.07474        -0.006211     -0.010090      0.010887
Mn	      0.07695      0.04107     -0.03876         0.174347     -0.040083      0.032288
Mn	      6.22138     -0.03773      2.10317        -0.087089      0.035361     -0.028752
Ni	      6.09409      2.07201     -0.00869         0.004929     -0.049012      0.055690
Ni	      8.31997     -2.13922      2.13723         0.009072     -0.063803      0.067637
O	      1.99253      2.27850     -2.27778         0.102987      0.068643     -0.068969
O	      6.25874     -0.13057      0.12380         0.022319     -0.092082      0.109531
O	      6.25408     -2.03301      2.02954        -0.035328      0.033281     -0.043765
O	      8.26252     -0.09172      2.15982        -0.017043      0.114892     -0.110631
O	      8.27248     -2.20066      4.27227         0.003563     -0.100408      0.095907
O	      1.87426      0.03337     -0.03086        -0.184218      0.004932     -0.002996
O	      4.17548      2.05123      0.01934        -0.145102      0.006913     -0.012382
O	      4.33755     -0.10842      2.17307         0.167197      0.112152     -0.111269
