# total energy = -100.82856109 eV
 
CRYSTAL
PRIMVEC
0.000032 2.147913 2.133665 
3.930746 0.000016 0.000038 
0.000165 9.472478 -9.418895 
PRIMCOORD
16 1
Li	      0.00104      0.57904     -0.53013         0.000274     -0.007620      0.012820
Li	      1.96640      2.69612     -0.51940        -0.000637     -0.007622      0.008246
Li	      0.00121      6.44341     -2.16003         0.001166      0.006642     -0.006857
Li	      1.96648      6.41212     -4.28295         0.000498      0.008421     -0.017809
Ti	      0.00170      9.08213     -4.86749        -0.000893     -0.297032      0.137468
Ti	      1.96713      9.52711     -7.23078        -0.000691      0.303026     -0.145524
Ni	      0.00115      2.36795     -2.34156        -0.000114     -0.004488      0.004547
Ni	      1.96658      4.62391     -2.47158        -0.000381      0.000260     -0.004262
O	      0.00149      7.23516     -5.09902         0.000149      0.314297     -0.135197
O	      1.96697      7.31502     -7.23900         0.000991      0.009552      0.010813
O	      0.00116      4.46987     -2.32024         0.000457      0.089494     -0.088258
O	      1.96656      6.72487     -2.45047         0.000117      0.084707     -0.053198
O	      0.00118      2.41505     -0.22953        -0.001186     -0.087133      0.059460
O	      1.96654      2.52161     -2.49243         0.000380     -0.092708      0.090319
O	      0.00169      9.14650     -6.99395         0.000371     -0.009363     -0.005468
O	      1.96705      9.22626     -9.13363        -0.000501     -0.310432      0.132899
