# total energy = -215.76528980 eV
 
CRYSTAL
PRIMVEC
0.033957 6.380332 6.286261 
6.172502 0.041643 6.279739 
4.149521 4.284123 -0.007404 
PRIMCOORD
36 1
Li	      2.00314      2.11706      0.13462        -0.080904     -0.023430      0.053414
Li	      2.07850      6.40461      8.30474         0.002006     -0.011316     -0.048091
Li	      6.17111      2.22009      4.19462        -0.001626      0.066136      0.025260
Li	      6.22174      2.20076      8.27907         0.007570      0.040658      0.033358
Li	      2.11211      4.16739      2.02015        -0.026272     -0.029918      0.010642
Li	      6.20803      4.31138      6.32061        -0.019042      0.020647      0.003069
Li	      6.23807      8.55691      6.35929         0.055440      0.027511      0.000214
Li	      4.18272      6.39601      6.38071         0.028626     -0.027166     -0.017107
Li	      6.15198      6.44392      8.29933         0.011012      0.001072      0.007272
Sc	      0.10124      4.19111      4.19878         0.064302     -0.105130      0.008587
Sc	      8.24152      6.45926     10.51662         0.104889      0.026003     -0.051094
Cr	      8.20735      4.31137      4.15404         0.119579      0.037741     -0.156860
Cr	      4.06703      4.31422      8.29345        -0.063772      0.004718     -0.124381
Fe	      8.29058      6.41499      6.37349        -0.017421      0.094227     -0.154014
Cu	      4.17171      8.54272      8.31516         0.160881     -0.177040      0.008282
Cu	      2.10209      2.10168      4.17125        -0.096167      0.041881     -0.010321
Cu	      4.20607      4.31856      4.15187         0.039572      0.024048     -0.250862
Cu	      4.15414      4.30028      0.04822         0.001969      0.018234     -0.049055
O	      6.33934      6.42960      6.06386        -0.211890      0.036769      0.017230
O	      4.15673      8.60203      6.33985         0.013251     -0.048339     -0.085690
O	      6.34455      8.54381      8.39067        -0.008027      0.022544      0.010121
O	      2.14954      2.14237      2.26199        -0.093272     -0.044572      0.029171
O	      4.13932      4.14042      2.00341         0.050617      0.094485      0.331912
O	      4.14780      2.11834      4.09307        -0.059023     -0.505477      0.111451
O	      6.20043      4.31100      4.21348        -0.129403     -0.044038      0.152934
O	      6.10154      2.06892      6.28678         0.162599      0.041735     -0.007962
O	      8.29801      4.39346      6.18579        -0.056387     -0.122772      0.086343
O	      2.17378      4.35505      4.15033        -0.002566     -0.029595     -0.050238
O	      4.16162      6.38076      4.21213        -0.051563      0.563719      0.035433
O	      4.16056      4.22194      6.43964         0.039956      0.027286     -0.005260
O	      6.03234      4.28784      8.44760        -0.002307      0.009980     -0.013547
O	      8.21485      6.57168      8.34075         0.013940      0.039264      0.132553
O	      2.02078      6.46012      6.23786         0.064645     -0.019259      0.042063
O	      4.14798      6.35964      8.44371         0.004078     -0.050595     -0.022576
O	      6.13759      6.35139     10.51473        -0.013685      0.058026     -0.020323
O	      8.29052      8.63500     10.35073        -0.011606     -0.058038     -0.031931
