# total energy = -214.89048573 eV
 
CRYSTAL
PRIMVEC
-0.011365 6.359158 6.116500 
6.326662 0.008083 6.097119 
4.223764 4.232441 -0.000683 
PRIMCOORD
36 1
Li	     10.41132      4.35726      6.08622        -0.058077      0.003440      0.053927
Li	      8.38596      2.19436      6.08677         0.047351      0.036859      0.047639
Li	      4.24565      6.28242      2.02293        -0.069130      0.042387     -0.046038
Li	      8.44481      4.31128      8.08973        -0.017552      0.150566     -0.005717
Li	      6.33030      6.39473      4.14039        -0.026175      0.043060      0.069155
Li	      8.42734      6.35336      6.08914        -0.055050      0.017680      0.079728
Li	      2.21630      4.10352      6.06166         0.037844     -0.101066      0.036247
Li	      4.28341      6.29694      6.08000         0.054780     -0.020977      0.026128
Li	      8.38856      8.48247      8.12141         0.057335     -0.044953     -0.031231
Sc	      4.18355      8.48804      8.03461        -0.032571     -0.004910     -0.532103
Sc	      6.35408      4.26874      6.16481        -0.045851      0.184719      0.380821
Cr	      2.09864      6.40101      8.02546         0.042432      0.074345     -0.186094
Cr	      2.11800      6.35197      4.08223        -0.005358     -0.200628     -0.577710
Fe	      4.23410      8.42740      4.12283         0.105435     -0.033133     -0.092536
Ni	      8.45957      4.25248      4.12331         0.070939     -0.085841     -0.047212
Ni	      6.33912      2.12644      4.09685        -0.049020     -0.142703      0.662090
Ni	      4.19934      4.24132      4.09028        -0.080687      0.155386     -0.051575
Ni	      6.34464      6.36288      8.09884        -0.037692     -0.035312     -0.076264
O	      2.12721      1.92039      2.06351        -0.018018     -0.173372      0.074135
O	      4.33715      4.22686      2.10879         0.020785     -0.020125     -0.080173
O	      4.33069      2.15048      4.04269         0.134098     -0.039842      0.007537
O	      6.34819      4.18440      3.95787        -0.026384     -0.036238     -0.065711
O	      6.33953      2.14152      5.98742        -0.033117      0.017462     -0.047544
O	      8.41050      4.23182      6.08679         0.004646      0.007076      0.129336
O	      2.06565      4.38042      4.07957         0.202312      0.202977     -0.019325
O	      4.05365      6.38272      4.07871        -0.144054     -0.096550     -0.016017
O	      4.23910      4.25060      5.99680         0.030407     -0.071949      0.078455
O	      6.32385      6.33423      6.13386         0.029344     -0.092885     -0.300167
O	      6.30467      4.27642      8.24484        -0.013565     -0.083792     -0.259566
O	      8.36983      6.37918      8.32168         0.201599      0.008298      0.638628
O	      2.08113      6.32671      6.17747         0.004174      0.013167     -0.029259
O	      4.21904      8.47410      6.01522        -0.054668      0.001776      0.470737
O	      4.13005      6.38232      8.19728        -0.150851      0.013255     -0.054215
O	      6.31852      8.56572      8.24656         0.013332      0.242048     -0.291628
O	      6.36835      6.34225     10.14388         0.090885      0.201438      0.166400
O	      8.44209      8.36945     10.21426        -0.229881     -0.131662     -0.110878
