# total energy = -210.38657395 eV
 
CRYSTAL
PRIMVEC
0.050417 6.238455 6.294371 
6.314375 0.022656 6.322332 
4.213981 4.182276 0.010507 
PRIMCOORD
36 1
Li	      6.32976      6.26362     12.48107         0.009496     -0.100667     -0.085997
Li	      8.49073      8.37899     12.50422         0.136846     -0.045046      0.003986
Li	      8.57647     10.38919     10.63368         0.118841     -0.023536      0.021755
Li	      0.04199      2.08386      2.10105         0.035441     -0.140456      0.067351
Li	      6.29933      6.29408      4.25746        -0.006304      0.036128     -0.102087
Li	      4.25840      8.32924      4.30834         0.018047     -0.036868      0.214241
Li	      8.37862      6.28147     10.57078        -0.086592     -0.009023      0.070080
Li	      4.23238      6.32301      6.22566        -0.127070      0.042136     -0.029463
Li	      6.45551      6.18345      8.47668         0.078806      0.168485      0.186068
Sc	      4.25007      8.31434      8.33355        -0.046250     -0.074436     -0.228538
Sc	      8.54765      8.29093      8.51413        -0.666779     -0.068677      0.165685
Cr	      2.15619      6.29558      8.32510        -0.107659      0.140959     -0.567572
Cr	      4.17808      4.29605      4.22248        -0.155150      0.150005     -0.053697
Ni	      6.37793      8.30489     10.54960         0.079174      0.106744     -0.346191
Ni	      8.35954      4.24496      8.40987         0.429596     -0.191390      0.235918
Ni	      8.44733      6.24529      6.30889        -0.070984      0.212895     -0.114603
Ni	      6.35863      4.20392      6.33978         0.267554      0.098452      0.232799
Ni	      6.32623      8.31121      6.26353        -0.132101      0.150654     -0.035536
O	      6.35617      6.45207     10.51159        -0.041210     -0.357849     -0.045619
O	      2.14048      2.00109      2.11709        -0.016875     -0.161496     -0.009172
O	      4.27753      4.19688      2.23309         0.080713     -0.006490     -0.053306
O	      4.33271      2.21594      4.23456        -0.120895      0.037060     -0.029439
O	      6.18282      4.05885      4.11403         0.028803      0.083743      0.397829
O	      6.13519      2.20322      6.24986         0.167181      0.478233      0.433309
O	      8.33769      4.25463      6.37399        -0.318425     -0.459639     -0.077629
O	      2.31097      4.13055      4.18648         0.064069      0.038881     -0.140211
O	      4.28061      6.08210      4.26142        -0.000392     -0.055449     -0.098399
O	      4.23552      4.15687      6.22726         0.476381      0.182356      0.202449
O	      6.53712      6.24716      6.27664        -0.088458     -0.875005      0.040571
O	      6.34621      4.19543      8.41990         0.022771     -0.022776     -0.674273
O	      8.45681      6.25732      8.32297         0.045972      0.278942      0.062007
O	      2.06925      6.16877      6.50059         0.046562      0.392323      0.393619
O	      4.34176      8.31655      6.31101        -0.405915     -0.015008      0.088847
O	      4.08301      6.24650      8.43162         0.001305     -0.023992     -0.029178
O	      6.37416      8.45060      8.38268         0.049126      0.065182      0.078929
O	      8.34166      8.32376     10.53028         0.234376      0.004624     -0.174535
