# total energy = -234.47758412 eV
 
CRYSTAL
PRIMVEC
-0.001255 6.463589 6.170975 
6.279571 0.013921 6.154641 
4.211677 4.323323 -0.015626 
PRIMCOORD
36 1
Li	      6.34925      6.50867     12.27000        -0.041799      0.050631      0.013769
Li	      8.33740      2.18154      6.10944        -0.018366      0.061907     -0.003536
Li	      4.27384      8.43092      8.18167        -0.045451      0.009187      0.021329
Li	      4.25271      4.26462      4.21528        -0.034053     -0.055551     -0.114912
Li	      4.19427      2.20106      6.06606         0.031533     -0.052972      0.028945
Li	      6.26989      4.22084      6.03728         0.054163     -0.084187      0.030980
Li	      2.11114      6.47476      4.25928         0.009114      0.012472     -0.076073
Li	      4.18368      6.47045      6.12584        -0.011686      0.006862     -0.008370
Li	      6.14342      6.55766      8.12676         0.020696     -0.045216      0.047719
Sc	      8.45115      4.40970      8.06869         0.013651      0.024447      0.324619
Sc	      8.33751      8.58218      8.10056         0.015368     -0.109275      0.322490
Mn	      6.26575     10.72378      8.17948        -0.108388      0.022128      0.145646
Mn	      6.31358      2.19479      8.14692        -0.033594     -0.007808      0.048469
Mn	      6.32127      6.50728      4.17969        -0.098992      0.121942     -0.199958
Mn	      4.23711      8.69901      4.19592         0.223753      0.029504     -0.212251
Cr	      8.39695      4.31484      4.13732         0.034302     -0.045841      0.087206
Co	      2.08444      4.32289      6.15463         0.218452      0.014314      0.037200
Cu	      6.21012      2.11808      4.24066         0.075308     -0.047460     -0.413743
O	      6.31287      2.19099      6.17257        -0.020896     -0.006340     -0.108746
O	      1.99860      2.24291      2.14192         0.028402     -0.083266      0.019950
O	      4.26671      4.52685      2.10533         0.113795     -0.135017     -0.007867
O	      4.04331      2.00277      4.06052        -0.018211     -0.007666      0.020379
O	      6.34209      4.25118      4.00317        -0.012360      0.028275     -0.001016
O	      8.36841      4.33392      6.12577        -0.016636     -0.001431     -0.204394
O	      1.99294      4.42394      4.17645        -0.097563     -0.053934     -1.360006
O	      4.33761      6.72972      4.10629         0.001124     -0.024143      0.091779
O	      4.07527      4.33503      6.12829         0.059711      0.008580     -0.023980
O	      6.30632      6.67784      6.07019         0.022459     -0.109458      0.098733
O	      6.30322      4.25361      8.29806        -0.068529      0.121211      0.019051
O	      8.58870      6.48953      8.22897         0.029670      0.095982     -0.073035
O	      2.08717      6.29839      6.30068        -0.011966      0.103899      0.036062
O	      4.34217      8.66016      6.06466        -0.157189      0.056431      0.064796
O	      4.05648      6.38105      8.28647        -0.021319      0.024003     -0.069734
O	      6.27279      8.54184      8.13461         0.060118     -0.022071      1.381825
O	      6.19679      6.35671     10.23554        -0.067805      0.075030      0.012937
O	      8.58036      8.71109     10.29164        -0.126818      0.024829      0.023740
