# total energy = -232.32496876 eV
 
CRYSTAL
PRIMVEC
0.032728 6.387203 6.095497 
6.517969 0.036550 6.091082 
4.352931 4.262262 0.017748 
PRIMCOORD
36 1
Li	      6.63332      4.23614      2.19114        -0.032525     -0.033560      0.021486
Li	      4.38022      2.04509      2.19548         0.026117     -0.032477      0.021656
Li	      4.43389      6.31239     10.03505         0.077421     -0.038276      0.042712
Li	      6.61054      8.54031     10.06048         0.028546      0.054904      0.051065
Li	     10.69655      6.49598      8.09629        -0.017557      0.031026     -0.042694
Li	      8.63482      4.48647      8.10441         0.015511      0.010253     -0.065260
Li	      8.66667      6.46721      6.23125         0.035192      0.006841     -0.032442
Li	      8.74665      8.45534      8.27833        -0.012868      0.003239     -0.021037
Li	      6.59971      6.39868      8.27073        -0.006274      0.017608      0.003999
Sc	      6.52463      8.50193      6.29144         0.045030     -0.060961      0.208940
Sc	      4.33197      6.36328      6.26856        -0.023475     -0.086556      0.020060
Mn	     10.81596      4.36303      6.17473        -0.049331      0.074717     -0.096113
Mn	      2.18595      2.16274      3.92519        -0.030299     -0.026181      0.080190
Mn	      4.34455      4.27517      3.90073        -0.015658      0.072696      0.081449
Mn	      6.62080      4.29503      6.16734         0.011832      0.065932      0.095055
Cr	      2.21358      2.16149      0.04961        -0.031064      0.056744     -0.033486
Co	      6.53569      4.26514     10.07091        -0.103043      0.113433     -0.183990
Ni	      8.62532      6.46994     10.02309         0.050633     -0.041520      0.041165
O	      8.69942      6.43237      8.12422        -0.014468      0.002345     -0.176045
O	      2.24595      2.03745      2.07445         0.068294      0.033094      0.013784
O	      4.39851      4.28058      2.00759        -0.005482      0.006080      0.005414
O	      4.08881      2.36122      4.07405        -0.053466     -0.041057     -0.026894
O	      6.53006      4.46718      4.20229         0.032708      0.006991     -0.075571
O	      6.74223      2.32670      6.01700        -0.005567     -0.063474      0.016332
O	      8.86122      4.18046      6.09807         0.012101      0.033720      0.005549
O	      1.99245      4.12800      4.00472        -0.031947     -0.065862      0.001003
O	      4.50969      6.40351      3.99411         0.063664     -0.099833     -0.000774
O	      4.23524      4.32479      5.88377        -0.028804     -0.005310     -0.001483
O	      6.46424      6.36276      5.99367        -0.021546      0.023278     -0.116560
O	      6.48276      4.32800      8.08249         0.060628     -0.110705      0.035244
O	      2.13207      6.41919      6.04103         0.010435      0.004982      0.128467
O	      4.35281      8.45198      5.97882        -0.002044     -0.002147      0.049256
O	      4.37663      6.40311      8.14389        -0.008026     -0.045771     -0.009678
O	      6.52917      8.54208      8.18690        -0.033391     -0.025931     -0.178240
O	      6.60261      6.21554     10.29090        -0.089156      0.028100      0.113790
O	      8.95324      8.46727     10.25845         0.077878      0.133638      0.023651
