# total energy = -235.79796051 eV
 
CRYSTAL
PRIMVEC
0.039897 6.266818 6.270878 
6.359752 0.045232 6.264876 
4.269291 4.203097 0.000893 
PRIMCOORD
36 1
Li	      4.32473      4.19033      0.08931        -0.040736      0.021674      0.038983
Li	      2.12145      2.03605      0.12494        -0.004053     -0.029766      0.018713
Li	      2.11447      0.08930      2.01060         0.008319      0.028570      0.047496
Li	      6.38594      6.27166      4.23145        -0.003451     -0.006535      0.003278
Li	      4.27783      4.28146      4.16396         0.082094      0.014781      0.028848
Li	      8.48973      6.31203      6.26989         0.000602      0.013361     -0.044812
Li	      6.46869      4.21690      6.21806         0.090804     -0.035272      0.019717
Li	      2.29956      6.22529      4.27534         0.035453      0.050496     -0.017469
Li	      4.20414      6.29024      6.18640         0.002007     -0.017192     -0.004061
Sc	      6.34966      2.15165      4.36212         0.004287      0.028226     -0.012559
Sc	      6.39421      6.28401      8.21927        -0.017017     -0.022825     -0.054605
Mn	      8.44759      4.26682      4.29616        -0.067465     -0.043220      0.043176
Mn	      4.26885      8.32432      4.23742        -0.043322     -0.026439     -0.002250
Mn	      2.11965      4.27624      6.23002         0.021658     -0.011908      0.014209
Mn	      4.27760      4.20670      8.25771        -0.010279     -0.002458     -0.030481
Cr	      2.21943      4.14959      2.01270        -0.012158      0.054251      0.023436
Co	      4.23246      2.12195      2.06363        -0.063051      0.077228     -0.017014
Co	      0.07129      2.05032      2.04154         0.045122     -0.042766      0.009418
O	      2.26804      2.18538      2.07216        -0.045092     -0.038870      0.022157
O	      4.16879      4.07341      2.16261         0.000033     -0.025238      0.040212
O	      4.30323      2.06263      4.03683         0.027043      0.089826     -0.049655
O	      6.54322      4.18560      4.22938         0.012362      0.004323     -0.000318
O	      6.39749      2.09305      6.30049         0.001869      0.051645      0.109279
O	      8.50459      4.25063      6.32307         0.041612     -0.023014      0.053732
O	      1.98792      4.23828      4.26265         0.032515      0.019690      0.060704
O	      4.29979      6.43818      4.07456        -0.039975     -0.058218     -0.025004
O	      4.09389      4.22740      6.35853        -0.081284     -0.016356     -0.029074
O	      6.41082      6.49729      6.25479        -0.027622      0.017031     -0.024661
O	      6.47401      4.24062      8.29681         0.041047      0.050527     -0.029323
O	      8.50970      6.36533      8.37275         0.052998      0.004437     -0.023286
O	      2.14954      6.13218      6.25261        -0.026355     -0.000695     -0.012659
O	      4.42930      8.39060      6.37137         0.007252      0.004872      0.074615
O	      4.29518      6.25911      8.38825        -0.022267     -0.072294     -0.077028
O	      6.30875      8.39975      8.29100        -0.056737      0.029022     -0.093740
O	      6.19791      6.22220     10.43752         0.040860     -0.009809     -0.016543
O	      8.56719      8.43158     10.27693         0.012922     -0.077080     -0.043431
