# total energy = -231.88503927 eV
 
CRYSTAL
PRIMVEC
0.006084 6.190305 6.361440 
6.425122 -0.012368 6.380291 
4.267479 4.123458 0.007382 
PRIMCOORD
36 1
Li	      4.23465      2.08242      2.23478        -0.000442     -0.003729      0.069780
Li	      8.48006      4.23595      4.39262        -0.030047      0.088196      0.057156
Li	      6.39277      2.03383      8.39368         0.057071      0.031573      0.033459
Li	      8.53470      4.22464      8.49584        -0.018193     -0.044061     -0.022058
Li	      2.26868      2.03311      4.12587        -0.008029     -0.003311     -0.012217
Li	      8.59676      6.09227      6.42845        -0.042867      0.049021     -0.027409
Li	      6.43209      4.15958      6.46018         0.007960     -0.022060      0.005777
Li	      2.16095      4.10630      6.35089         0.038136      0.006752     -0.018854
Li	      4.32534      4.04887      8.45218        -0.039535      0.018282     -0.057023
Sc	      2.13239      2.14863      0.10226        -0.032821     -0.055437      0.069532
Sc	      6.38263      2.04654      4.28463        -0.046565      0.069681     -0.015008
Mn	      6.45429     10.27601      8.52500         0.060875     -0.058379      0.041892
Mn	      4.20320      4.14298      4.20911         0.104965      0.006532      0.173633
Mn	      4.34545      6.15399      6.37040         0.098688     -0.087056      0.079187
Mn	      6.40208      6.16408      8.44334         0.054833      0.071396     -0.091579
Cr	      6.44079      4.10412     10.56485        -0.086020      0.007339     -0.113079
Cu	      8.56932      6.14034     10.46834         0.034507      0.039374      0.022725
Ni	      4.22375      4.10548      0.17536         0.050444     -0.072352     -0.001866
O	      8.30779      6.21731      8.45455        -0.117822     -0.010551     -0.052333
O	      2.17862      1.88173      2.12855         0.013486      0.117131     -0.052908
O	      4.26985      4.13307      2.24306        -0.047506      0.030853     -0.036684
O	      4.30869      2.22446      4.31002         0.016094     -0.052942      0.015714
O	      6.53086      4.08443      4.09551        -0.029978     -0.025238      0.106907
O	      6.49014      1.98458      6.36920         0.029665      0.052514     -0.010425
O	      8.64824      4.10760      6.39607        -0.061225     -0.006162      0.029548
O	      2.00414      4.24928      4.20694        -0.000087     -0.193420     -0.009086
O	      4.34223      6.19194      4.41908         0.084629      0.008217     -0.038057
O	      4.30306      4.27527      6.18606         0.005515      0.002183     -0.034436
O	      6.26247      6.17767      6.52817        -0.029662      0.045061     -0.030373
O	      6.38541      4.23853      8.56788        -0.017829     -0.040830      0.013618
O	      2.28430      6.14872      6.54609         0.024418     -0.034884     -0.070537
O	      4.27726      8.18288      6.24706         0.025538      0.017708     -0.012832
O	      4.40119      6.15816      8.28179         0.007030      0.016442      0.056594
O	      6.40426      8.21667      8.54860        -0.011939     -0.077405     -0.034597
O	      6.26740      6.12127     10.45150        -0.154047     -0.032421      0.021810
O	      8.60974      8.07773     10.67984         0.060761      0.141981     -0.055973
