# total energy = -230.47442115 eV
 
CRYSTAL
PRIMVEC
0.045342 6.359947 6.384016 
6.320119 0.038583 6.390344 
4.236310 4.266841 0.002956 
PRIMCOORD
36 1
Li	      2.12562      4.34213      2.23366         0.029929      0.030014      0.030658
Li	      2.16489      2.20570      4.32541        -0.032852      0.017746      0.037614
Li	      4.10925      4.24790      4.38178        -0.092531     -0.045469      0.053749
Li	      8.33558      6.45532      6.43716        -0.002470     -0.000559      0.050506
Li	      2.20408      6.21401      4.24662         0.057624     -0.037950      0.005295
Li	      2.16010      4.22253      6.33944         0.023372      0.001694     -0.023635
Li	      4.37858      6.30043      6.43766        -0.034241      0.041026      0.002886
Li	      4.24333      4.27046      8.39840        -0.019005     -0.048196     -0.040673
Li	      6.43153      6.35519      8.35709         0.151442     -0.035692     -0.043200
Sc	      2.25775      8.48954      6.41034        -0.049499     -0.025829      0.082943
Sc	      6.34388      8.48790     10.58236         0.117593     -0.058931      0.038520
Mn	      4.30088     10.60890      6.40323         0.006108      0.075438      0.052988
Mn	      6.32947      4.28279      2.16905        -0.061352      0.027876      0.051417
Mn	      6.19763      4.36516      6.38850         0.019248     -0.026099      0.052397
Mn	      0.13629      4.27423      4.21403         0.033899     -0.061553     -0.005979
Cr	     10.44863      6.48619      8.59101        -0.033386      0.077701     -0.002726
Cu	      4.31947      8.41115      8.52623         0.020354      0.140949     -0.071045
Cu	      4.23309      6.40731     10.59205        -0.089511     -0.006121     -0.016907
O	      8.65694      6.42059      8.47288        -0.050166     -0.073074     -0.011472
O	      4.04991      6.41837      8.58172        -0.007587     -0.074580     -0.079594
O	      1.91973      1.99073      2.10226        -0.099235     -0.012196     -0.062870
O	      4.30393      4.37555      2.03272        -0.028270      0.019730      0.022903
O	      4.25670      2.02895      4.12253        -0.130674      0.107909      0.075431
O	      6.22490      4.20173      4.42344        -0.129559      0.059078      0.078718
O	      6.37103      2.29214      6.43712        -0.061537      0.069262     -0.117676
O	      8.57179      4.27056      6.34719         0.062903      0.112751      0.058827
O	      2.00199      4.22122      4.25905         0.047906      0.061019     -0.030987
O	      4.24839      6.57878      4.04245        -0.071121     -0.051365      0.035257
O	      4.35322      4.29234      6.37443         0.075094      0.044315     -0.046412
O	      6.35383      6.19960      6.41839        -0.056064     -0.067828     -0.018147
O	      6.34824      4.20448      8.39685         0.001252      0.001071     -0.107781
O	      1.99423      6.42635      6.38258        -0.037402     -0.086907     -0.058295
O	      4.28450      8.45855      6.51224         0.085245     -0.067837     -0.010099
O	      6.42815      8.68373      8.57089         0.184762      0.002914     -0.005497
O	      6.47315      6.34496     10.77403         0.187552      0.025119      0.058212
O	      8.60348      8.65049     10.69276        -0.017823     -0.135426     -0.035326
