# total energy = -236.90434703 eV
 
CRYSTAL
PRIMVEC
-0.002714 6.383425 6.348732 
6.291794 0.033139 6.311935 
4.231373 4.268491 -0.014909 
PRIMCOORD
36 1
Li	      4.26497     10.59747      6.42395         0.033428      0.001940      0.024015
Li	      2.31470      8.41083      6.49271         0.024202     -0.043028      0.017879
Li	      1.96901      0.09623      2.05382         0.020679     -0.028770     -0.028838
Li	      4.13576      2.25315      2.03397         0.005037     -0.015451     -0.031686
Li	      4.26685      6.23361      2.14250        -0.008234      0.022915     -0.051551
Li	      2.20251      4.24317      2.15919        -0.031364     -0.006176     -0.018284
Li	      0.03618      4.29590      4.28470         0.027147      0.035085      0.010680
Li	      4.11860      6.57306      6.36112         0.024590      0.005655      0.060590
Li	      6.32548      6.40095      8.53008         0.004599     -0.010260     -0.032254
Sc	      6.35693      4.27475      6.37456        -0.037173     -0.029109      0.096540
Sc	      8.46305      8.54816      8.48883         0.044818      0.070651     -0.083878
Mn	      6.25655      8.54790     10.47542         0.025354      0.009561      0.039093
Mn	      2.02127      2.17748      4.03155        -0.008092     -0.041605      0.055839
Mn	      8.41314      6.38940      6.34785        -0.003467      0.029160      0.029039
Mn	      6.22067      8.57465      6.38430        -0.049235      0.002187      0.055925
Cr	      2.16068      6.36163      4.23833        -0.000169      0.117588      0.045001
Fe	      4.31819      6.39895     10.46591        -0.060571      0.034272      0.173445
Co	      4.18040      4.26281      4.09896        -0.142112      0.000206     -0.224526
O	      2.04143      2.14402      2.18812         0.017205      0.042078     -0.037904
O	      4.20380      4.26794      2.25676        -0.044756     -0.033080      0.142123
O	      4.05233      2.16352      4.13768        -0.003670      0.036879     -0.057853
O	      6.23019      4.17677      4.20502        -0.010990     -0.019025     -0.006349
O	      6.12324      2.20335      6.14264         0.038918     -0.011490     -0.010748
O	      8.39593      4.44593      6.13925        -0.008320     -0.085177      0.037180
O	      2.21944      4.35967      4.20877         0.075670     -0.013495     -0.043558
O	      4.23821      6.19834      4.25016        -0.075759     -0.018108     -0.023847
O	      4.12345      4.12363      6.31409        -0.060432      0.053515     -0.083338
O	      6.40804      6.44103      6.13819        -0.028288      0.053894     -0.026944
O	      6.26937      4.32912      8.33473        -0.044326      0.047652      0.021282
O	      8.41604      6.47593      8.50873         0.010045     -0.073988      0.097159
O	      2.11689      6.26423      6.24531         0.047580      0.017423     -0.045963
O	      4.37135      8.52787      6.31278         0.031393      0.003193      0.034592
O	      4.21124      6.34965      8.60284        -0.004827     -0.017706     -0.194534
O	      6.34485      8.53207      8.52590         0.047397     -0.039034      0.010785
O	      6.33022      6.55407     10.54949         0.142485     -0.004044     -0.007963
O	      8.48483      8.55200     10.58094         0.001239     -0.094310      0.058850
