# total energy = -236.86822878 eV
 
CRYSTAL
PRIMVEC
0.061507 6.273553 6.542032 
6.275110 0.030304 6.573554 
4.154729 4.174721 0.048612 
PRIMCOORD
36 1
Li	      6.25575      0.05528      6.56809        -0.036514     -0.046761      0.024894
Li	      6.21084      4.22498      2.29352         0.010964     -0.040332      0.052940
Li	      8.33206      4.26112      8.84658        -0.004175     -0.020471      0.034679
Li	      6.19541      6.35145      4.52244        -0.011226      0.064801     -0.011330
Li	      4.19410      4.19949      4.40661         0.008151      0.016201     -0.027036
Li	      4.18479      2.11379      6.43700         0.024916      0.058005     -0.001177
Li	      4.28015      8.30460      4.45399        -0.010950     -0.014654      0.009653
Li	      4.24494      6.29583      6.40270         0.056184      0.011571     -0.034435
Li	      6.29406      6.28848      8.73062         0.014305      0.038008     -0.054828
Sc	      4.14818      2.20899      2.25653         0.019941     -0.010050     -0.058058
Sc	      4.19804      4.23861      8.72272        -0.011341      0.016544     -0.021784
Mn	      4.22117      0.05717      4.41929         0.019256     -0.002146     -0.027737
Mn	      4.19491      6.19486      2.26419         0.007129     -0.014052     -0.035527
Mn	      6.28123      4.26580      6.56469         0.040163      0.048783      0.032263
Mn	      2.13769      4.14453      6.47087        -0.030330      0.052544      0.013404
Cr	      2.11650      6.19789      4.38133        -0.011030     -0.016485     -0.027509
Fe	      2.15730      8.26138      6.57840        -0.115849     -0.014076     -0.025559
Cu	      6.22522      2.09972      4.46271         0.009912      0.012780     -0.040521
O	      2.01009      2.08213      2.10485        -0.019739     -0.033921      0.102271
O	      4.16772      4.27587      2.25094        -0.010210     -0.019193      0.013404
O	      4.27316      2.16087      4.33131        -0.133137      0.050495      0.074631
O	      6.37114      4.08803      4.55587        -0.066733      0.062003     -0.018975
O	      6.35555      2.07189      6.83526        -0.085562     -0.100239      0.025535
O	      8.27209      4.11610      6.41440        -0.040118      0.058257      0.074863
O	      2.09773      4.23010      4.53912        -0.007074     -0.026699     -0.112804
O	      4.12998      6.27308      4.19270        -0.005185     -0.000093      0.089235
O	      4.33906      4.23755      6.64916         0.119145      0.044199     -0.023666
O	      6.29417      6.36042      6.56736         0.051565      0.065181      0.000803
O	      6.29193      4.06967      8.64339         0.033270     -0.010042     -0.002249
O	      8.50971      6.28415      8.91794        -0.012441      0.010787     -0.029900
O	      2.15684      6.24482      6.39135        -0.002843     -0.141975      0.019265
O	      4.08516      8.34341      6.67517         0.038607      0.025761     -0.019197
O	      4.21955      6.30243      9.01577         0.028663      0.004590     -0.020288
O	      6.29359      8.39243      8.50191         0.020405      0.019411     -0.050870
O	      6.30971      6.37651     10.91345         0.031791     -0.118137      0.034945
O	      8.31923      8.27617     10.99144         0.080090     -0.030595      0.040667
