# total energy = -102.36788955 eV
 
CRYSTAL
PRIMVEC
0.000554 2.114877 2.115906 
5.994926 0.027432 -2.143250 
-2.052747 6.639756 -4.528316 
PRIMCOORD
16 1
Li	      0.07244      2.35693      1.87471         0.007945     -0.017220      0.010514
Li	      1.91303      2.39725     -0.28101        -0.006110     -0.022481      0.020602
Li	      2.05532      4.15983     -2.04388         0.004967      0.019027     -0.017125
Li	      3.89694      4.19449     -4.19285        -0.011397      0.017288     -0.014665
Ti	     -0.13284      6.52435     -2.29868        -0.173630     -0.051196      0.052800
Ti	      2.04505      6.65763     -4.56065         0.172011      0.051015     -0.054983
Ni	      3.94132      2.32818     -2.32562        -0.014794     -0.110817      0.102298
Ni	      0.02739      4.22496      0.00844         0.012557      0.112915     -0.111130
O	      4.02876      4.36082     -2.24316        -0.140148      0.117082     -0.121295
O	      3.96301      1.97585      0.13680         0.013504     -0.109199      0.133100
O	      1.90947      6.75161     -2.52192        -0.035130      0.048212     -0.054284
O	      1.98363      2.22092     -2.22039        -0.003922     -0.003391      0.003208
O	      3.95359      6.60911     -4.49890         0.002997     -0.002090     -0.000648
O	      0.00403      6.43996     -4.32724         0.036487     -0.054849      0.052643
O	     -0.00009      4.57338     -2.46136        -0.005208      0.121699     -0.121066
O	     -0.05947      2.19195     -0.07492         0.139872     -0.115994      0.120031
