# total energy = -231.92085747 eV
 
CRYSTAL
PRIMVEC
0.011724 6.233377 6.325331 
6.459518 -0.002437 6.339514 
4.302995 4.161363 0.002179 
PRIMCOORD
36 1
Li	      2.33904      6.15674      8.49730         0.069002      0.042200      0.020559
Li	      4.36252      6.14527     10.47903         0.077658      0.023691      0.017803
Li	      6.46793      2.16829      4.23929         0.017220     -0.000756      0.068345
Li	      8.53223      6.28875      6.40208         0.007938     -0.006133      0.057600
Li	      6.48883      4.14521      6.37040         0.008469     -0.037360     -0.025153
Li	      6.36294      4.24839     10.42199        -0.043768      0.023454     -0.076820
Li	      4.40451      6.22270      6.46815         0.043030      0.025538      0.001713
Li	      4.37580      4.28132      8.38481        -0.011980      0.017167     -0.037880
Li	      6.34917      6.17545      8.41313         0.030883      0.019173      0.012729
Sc	      6.37796      0.02967      6.26576        -0.027572     -0.002700     -0.033394
Sc	      8.56983      6.30081     10.45791        -0.047340      0.074005     -0.027822
Mn	      8.58606      2.06580      6.33869         0.017865     -0.050224      0.005476
Mn	      4.39373      8.23372      8.50138         0.063382     -0.023940      0.001166
Mn	      4.34287      4.13084      4.24824        -0.002318     -0.015312      0.000663
Mn	      6.51363      8.25907      6.37599         0.031588     -0.032223      0.078057
Cr	      6.45619      2.12049      8.43148        -0.073562     -0.004732     -0.030011
Ni	      8.50625      4.16809      8.41667        -0.003443      0.021201      0.055772
Ni	      6.44721      6.18578      4.26936        -0.027477     -0.043287     -0.099449
O	      2.05410      2.09370      2.00196        -0.048313     -0.149927      0.034656
O	      4.21689      4.08327      2.21943         0.061747      0.097417      0.031731
O	      4.25218      2.19790      4.14545         0.058878      0.025395      0.012567
O	      6.20765      4.17447      4.25238        -0.087722     -0.152683      0.003231
O	      6.45227      2.04387      6.44385        -0.055952      0.013000     -0.070152
O	      8.63392      4.01537      6.35715         0.003614     -0.007879     -0.096620
O	      2.28870      4.12971      4.29178         0.025306      0.081251      0.106323
O	      4.32578      6.09077      4.12359        -0.123197     -0.019853      0.003723
O	      4.14705      4.18686      6.15487         0.011981     -0.040071     -0.002403
O	      6.46950      6.39422      6.28736         0.054152      0.056342      0.111570
O	      6.48520      4.07192      8.47384        -0.135115      0.020002     -0.089455
O	      8.76041      6.19477      8.44686        -0.025547      0.125423     -0.047179
O	      2.11064      6.23725      6.28175        -0.006333      0.001348      0.011916
O	      4.49773      8.30557      6.46624         0.031738      0.010981      0.048486
O	      4.30516      6.38523      8.52000         0.096522     -0.085379     -0.052424
O	      6.56367      8.33135      8.22344         0.011129     -0.011713      0.028510
O	      6.54622      6.23971     10.59992        -0.011407      0.011292     -0.001884
O	      8.66656      8.30974     10.75020         0.008946     -0.004708     -0.021949
