# total energy = -240.02218736 eV
 
CRYSTAL
PRIMVEC
0.052776 6.304788 6.261550 
6.547866 0.027628 6.285202 
4.384738 4.237968 -0.000307 
PRIMCOORD
36 1
Li	      4.51518     10.43537      6.26910        -0.014157      0.013426      0.006580
Li	      2.38857      8.36507      6.28281         0.073147      0.015061      0.006335
Li	      4.51672      8.37385      8.38042         0.015701      0.018201      0.031406
Li	      4.39684      6.32773     10.32557        -0.025517     -0.026382     -0.002079
Li	      6.57197      8.47727     10.30510        -0.055312      0.055344      0.003480
Li	      2.25612      2.09235      4.11142         0.029936     -0.005915     -0.004783
Li	      6.47188      8.48529      6.35770        -0.028943     -0.047123      0.009749
Li	      4.35546      6.41957      6.36315        -0.005886     -0.020406      0.017883
Li	      8.66931      8.60967      8.45570        -0.025094      0.023664      0.035771
Sc	      4.35016      2.14524      6.23668        -0.083684      0.007469     -0.021495
Sc	      6.58954      4.25540      6.18720         0.050279      0.071790     -0.062667
Mn	      0.08169      2.08685      2.08183        -0.023219     -0.052293      0.005211
Mn	      2.23534      4.15962      2.09413         0.010369      0.036673     -0.092647
Mn	      4.46745      4.20169      4.14794         0.114451      0.032834      0.068835
Mn	     10.90700      8.48244     10.51922        -0.068164     -0.023407      0.189050
Mn	      2.18539      6.35308      4.31187        -0.026656      0.010059      0.024676
Cr	      6.44123      6.41177      8.39353        -0.043901     -0.050959     -0.167206
Co	      2.37184      6.23479      8.29850        -0.085490      0.060853      0.012964
O	      2.09659      2.22763      2.07496         0.056113      0.044716     -0.001602
O	      4.44879      4.22880      2.21825        -0.028453      0.124530     -0.006114
O	      4.35833      2.25763      4.21786         0.003884      0.047105      0.055572
O	      6.61985      4.23987      4.17080         0.022129     -0.038243      0.024606
O	      6.46537      2.16183      6.46239        -0.019745     -0.021382      0.073818
O	      8.69346      4.28858      6.41984        -0.000812     -0.004711      0.091288
O	      2.05699      4.31520      4.08735        -0.092617     -0.050972     -0.003204
O	      4.43905      6.35420      4.02618         0.003460     -0.021055     -0.102205
O	      4.47677      4.22955      6.07761         0.050358      0.021581     -0.015335
O	      6.65507      6.32056      6.38092         0.059864     -0.027291      0.047273
O	      6.50484      4.28806      8.43802        -0.005123     -0.054996      0.031049
O	      8.75431      6.22642      8.46847        -0.105119     -0.042525      0.028240
O	      2.22247      6.31026      6.21825        -0.008156     -0.050083     -0.144257
O	      4.43915      8.42431      6.05120         0.023405     -0.006742     -0.209768
O	      4.45281      6.36504      8.34713         0.176751     -0.017709      0.019727
O	      6.65585      8.36982      8.37541         0.005639     -0.010507      0.014844
O	      6.51469      6.17554     10.39858        -0.012991     -0.000995      0.049221
O	      8.98096      8.30667     10.49533         0.063554     -0.009611     -0.014216
