# total energy = -237.17523451 eV
 
CRYSTAL
PRIMVEC
-0.019177 6.241799 6.469665 
6.301675 0.007745 6.442242 
4.213697 4.156067 -0.007118 
PRIMCOORD
36 1
Li	      6.31776      2.08820      4.30212        -0.016987      0.019342      0.019532
Li	     10.47167      6.27023      8.60513        -0.029339     -0.023451      0.002019
Li	      6.32329      6.24109      4.47286        -0.023086      0.013905      0.154485
Li	      8.23461      6.27029      6.43313        -0.094907     -0.006639     -0.000433
Li	      6.28336      4.32986      6.46427        -0.008662      0.058536     -0.029605
Li	      8.37288      6.26048     10.66163        -0.016505     -0.025031     -0.065076
Li	      6.37787      8.15251      6.49713        -0.009082     -0.030139      0.055948
Li	      4.35333      6.19732      6.45387         0.078868      0.022155     -0.001701
Li	      6.34465      6.21175      8.48709        -0.005527     -0.009416     -0.173879
Sc	      4.27778      8.25137      8.69663         0.014678      0.056533     -0.035796
Sc	      4.23725      4.23527      4.47792        -0.004791      0.058836      0.014770
Mn	      6.28680      6.29035     12.83989         0.037093     -0.069992      0.039425
Mn	      8.34803      8.31546     12.87165         0.052597     -0.040301      0.005987
Mn	      8.31986      4.26785      8.58885         0.038436     -0.050152     -0.013271
Mn	      4.23021      8.25119      4.27301         0.026046     -0.055075      0.022543
Mn	      4.20106      4.08454      8.51553        -0.005124     -0.010946      0.001334
Cr	      6.31102      4.18824      2.18356        -0.049055      0.006757     -0.008184
Ni	      8.37708      4.17620      4.30668        -0.004732      0.038864      0.037408
O	      6.27610      6.25393      6.46368         0.036873     -0.004022      0.044474
O	      2.16685      2.08596      2.07725        -0.011864      0.029574     -0.001691
O	      4.26310      4.14912      2.21871         0.051945     -0.005794     -0.057914
O	      4.24316      2.10421      4.24835        -0.029129      0.097705      0.021527
O	      6.30472      4.17591      4.18534        -0.070618     -0.006248      0.017965
O	      6.46200      1.93957      6.33913        -0.030699      0.027431      0.011564
O	      8.44081      4.07266      6.47454         0.014941     -0.015002      0.066137
O	      2.02159      4.19501      4.17810        -0.031515     -0.026341     -0.035673
O	      4.19368      6.31926      4.36406        -0.026939      0.026605     -0.068078
O	      4.20372      4.15663      6.51293        -0.008395      0.002943      0.022314
O	      6.18660      4.14503      8.62569        -0.033317     -0.027262      0.079618
O	      8.39033      6.24941      8.54578         0.009336     -0.129205      0.023615
O	      1.99254      6.35755      6.61518         0.020866      0.013327     -0.023895
O	      4.06234      8.45277      6.47698        -0.012282      0.009659     -0.085140
O	      4.08786      6.20252      8.66221         0.012632      0.063946     -0.072357
O	      6.37015      8.40314      8.58995         0.023732      0.045639      0.040101
O	      6.22285      6.05865     10.78747         0.098785      0.002878     -0.014966
O	      8.51218      8.30311     10.65656         0.005728     -0.059622      0.006889
