# total energy = -243.60951828 eV
 
CRYSTAL
PRIMVEC
0.011570 6.249126 6.652413 
6.313498 -0.009180 6.673544 
4.216805 4.187658 -0.014172 
PRIMCOORD
36 1
Li	     10.36539      4.29841      6.88740         0.013044     -0.056190      0.034963
Li	      6.24300      4.20040      2.39752         0.028639      0.014250      0.005777
Li	      4.18056      2.22851      2.45740        -0.042466      0.016265     -0.008544
Li	      8.26935      4.31093      4.53724         0.062982     -0.047187      0.034964
Li	      8.55989      4.14752      8.71789        -0.037908      0.034989      0.031824
Li	      2.27672      1.91072      4.34503         0.015433      0.025518     -0.023378
Li	      4.29378      4.09535      4.34925         0.000571      0.006942      0.027192
Li	      4.26250      1.90783      6.51710        -0.002661      0.014885     -0.019286
Li	      6.39465      4.20034      6.43873        -0.037242      0.003899     -0.010330
Sc	      2.07135      2.19548      0.18291         0.030815     -0.018020     -0.002498
Sc	      6.31674      4.20371     11.10699        -0.055987     -0.016420      0.010384
Mn	      6.22927      2.14938      4.51624         0.084246     -0.056913     -0.000069
Mn	      4.21468      6.19002      2.17936        -0.049693      0.081615      0.026806
Mn	      2.11147      6.24512      4.44459        -0.037178      0.088380      0.000600
Mn	      4.25264      6.22141      6.66510         0.021530     -0.029373     -0.072141
Mn	      4.20632      4.17615      8.79585         0.027811     -0.008029     -0.018529
Mn	      6.35700      6.22264      8.77896         0.003629      0.001169     -0.013997
Cr	      2.13981      4.17658      6.64728        -0.033128      0.040779     -0.016655
O	      2.00200      2.11989      2.23280         0.053197     -0.007846      0.009072
O	      4.19287      4.32984      2.20644        -0.023164     -0.021986      0.034279
O	      4.37228      2.06427      4.40907        -0.107684     -0.001262      0.051151
O	      6.31986      4.00713      4.44106         0.027377      0.041305     -0.030727
O	      6.32688      2.07243      6.85957        -0.015541     -0.050688     -0.007991
O	      8.43072      4.11604      6.65532         0.049357      0.041101      0.029882
O	      2.03979      4.30817      4.59674        -0.002854     -0.018373      0.025648
O	      4.06549      6.30987      4.23877         0.048088     -0.059587      0.040734
O	      4.13781      4.30392      6.61521        -0.033679     -0.078588     -0.011863
O	      6.20818      6.33600      6.60076         0.000296      0.020811     -0.024228
O	      6.18759      4.08609      8.99697         0.041712     -0.096312      0.054214
O	      8.43871      6.36860      8.83532         0.037795     -0.045373      0.018609
O	      2.28471      6.21115      6.64326        -0.007030     -0.008449     -0.047547
O	      4.26118      8.21644      6.56180         0.063412      0.063929     -0.035037
O	      4.31685      6.08076      8.86645        -0.045566      0.041805     -0.035577
O	      6.46198      8.31831      8.67829        -0.038390      0.065037     -0.074005
O	      6.46298      6.30770     11.03744        -0.042349      0.003591      0.011485
O	      8.35560      8.21852     11.22187         0.002586      0.014328      0.004816
