# total energy = -230.31365547 eV
 
CRYSTAL
PRIMVEC
0.013108 6.385363 6.390010 
6.199883 0.037992 6.364614 
4.144139 4.250511 0.014903 
PRIMCOORD
36 1
Li	      4.14127      4.22182      0.10460         0.107085     -0.037200     -0.018656
Li	      6.23800      4.26011      2.22027        -0.019171      0.028326      0.023730
Li	      4.12283      2.11259      2.18132         0.006048      0.104461      0.002330
Li	      6.20011      8.51131     10.56548         0.049886     -0.056815     -0.021264
Li	      4.18069      6.30170      2.13638        -0.051820     -0.059844      0.041231
Li	      4.20778      4.24289      4.13485         0.000233      0.046631     -0.094678
Li	      6.20197      4.27868      6.42143        -0.092218      0.024864      0.036808
Li	      4.14909      4.43795      8.43692         0.074744     -0.017734      0.081803
Li	      6.11738      6.36620      8.52537         0.043223     -0.068850      0.038881
Sc	      4.21247      2.15719      6.37067         0.005996      0.152110      0.264853
Sc	      6.16822      4.32307     10.51247        -0.119661      0.111535     -0.092403
Mn	      6.22275      6.34812      4.23409        -0.041992      0.149587      0.089859
V	      8.16833      2.22622      6.43664        -0.064169     -0.428671     -0.527155
V	      8.26828      6.37299     10.57513         0.057619      0.013156      0.331142
V	      6.19704      8.54701      6.63711         0.061790     -0.033695     -0.305741
Co	      2.14317      4.26164      2.08864        -0.214925     -0.026638     -0.215586
Cu	      4.13236      6.43937     10.48995         0.058513     -0.054407     -0.123505
Ni	      4.16834      6.35772      6.51484         0.046739     -0.045238     -0.083351
O	      2.09360      2.18581      1.91579         0.092876      0.445778      0.135522
O	      3.97260      4.26746      2.09303        -0.223220     -0.049488      0.075337
O	      4.03233      2.23228      4.34335         0.014126      0.200998     -0.092399
O	      6.25361      4.47485      4.23054        -0.037018     -0.048335     -0.045278
O	      6.29157      2.17874      6.31425         0.102477     -0.004509      0.022097
O	      8.26297      4.18705      6.25828         0.041335      0.179698      0.722965
O	      2.05731      4.23738      4.38750         0.021262     -0.532900     -0.177599
O	      4.18845      6.40856      4.31544         0.267082     -0.117157      0.033829
O	      4.02792      4.25057      6.46030        -0.039951     -0.024265      0.068988
O	      6.23477      6.57086      6.45514         0.020104     -0.028123      0.022131
O	      6.36751      4.26517      8.49758         0.371098     -0.012879      0.079313
O	      8.33587      6.28128      8.65696         0.062235     -0.388253     -1.142264
O	      2.09829      6.35391      6.27395        -0.071037      0.020264      0.390901
O	      4.13535      8.45279      6.35983        -0.072115      0.141123      0.089683
O	      4.15505      6.36643      8.55293        -0.124455      0.172825     -0.037721
O	      6.17344      8.60571      8.36191        -0.035622      0.005196      0.262809
O	      6.29596      6.38899     10.60135        -0.274843      0.038377      0.031360
O	      8.27063      8.39507     10.80468        -0.022254      0.200070      0.132028
