# total energy = -230.68152474 eV
 
CRYSTAL
PRIMVEC
0.022232 6.335000 6.273352 
6.377132 0.006690 6.289172 
4.248506 4.230790 0.007445 
PRIMCOORD
36 1
Li	     10.43541      4.29016      6.34484         0.031510      0.008494      0.056800
Li	      8.42447      2.36696      6.32030         0.018306     -0.041557      0.022821
Li	      8.47093      4.22261      4.40356        -0.006722     -0.008279     -0.039209
Li	      8.45578      4.28001      8.15468        -0.048148      0.058668      0.082883
Li	      6.38073      6.17248      4.15705         0.019387     -0.056856     -0.023605
Li	      4.35664      4.27934      4.11698         0.018808      0.015941      0.003250
Li	      8.53689      6.12827      6.35161         0.019810      0.093564      0.055746
Li	      6.65221      4.18268      6.31841        -0.064859      0.006573      0.057859
Li	      8.51282      6.38125     10.41796        -0.006281      0.000567     -0.025542
Sc	      6.42106      2.14912      4.39445         0.030617      0.006798      0.032859
Sc	      4.24586      6.34070      6.13780        -0.011612     -0.022025     -0.072794
Mn	      6.45292      6.27007      8.39926        -0.018036      0.035093      0.007154
V	      4.13028      2.20864      2.17735         0.012557     -0.055031     -0.030919
V	      2.16301      4.24931      6.13169         0.002988     -0.007760      0.044500
V	      8.52608      8.41217      8.41142        -0.037307      0.127277     -0.096488
Co	      6.36448      4.21832      2.12216         0.037671     -0.008047      0.008248
Ni	      6.40212      2.10442      8.34821        -0.018647     -0.028042     -0.005889
Ni	     10.57287      8.50174     10.47292         0.041152      0.005285      0.099337
O	      8.52482      4.24731      6.30047         0.030140      0.000353     -0.009680
O	      2.23759      1.94803      2.07993        -0.058513     -0.083463     -0.013390
O	      4.38833      4.14188      2.10638         0.137311     -0.003407      0.010058
O	      4.28847      2.11645      3.95440        -0.036872     -0.005569      0.010388
O	      6.36142      4.18570      4.05116        -0.002792     -0.005098     -0.073054
O	      6.38499      2.12568      6.33032         0.013301      0.005687     -0.057611
O	      2.07683      4.22956      4.38935         0.062423     -0.036576     -0.079194
O	      4.26509      6.40602      4.13938         0.001304     -0.129485      0.109838
O	      4.11287      4.28105      6.36592        -0.008875     -0.026480     -0.073313
O	      6.35575      6.46579      6.43277         0.010480     -0.019573      0.013142
O	      6.32208      4.20787      8.41745         0.124442      0.077487     -0.137289
O	      8.46725      6.48317      8.38547        -0.006440     -0.214221      0.014364
O	      2.17850      6.20267      6.40577        -0.022656      0.025786      0.028826
O	      4.38212      8.43656      6.43359        -0.005157      0.002508      0.034658
O	      4.21099      6.33642      8.33299        -0.084632      0.091565     -0.011433
O	      6.34893      8.52730      8.32774        -0.087031      0.091464      0.000841
O	      6.41823      6.33408     10.30839         0.016046      0.106608     -0.056446
O	      8.51880      8.46285     10.38338        -0.103672     -0.008249      0.112283
