# total energy = -235.84346549 eV
 
CRYSTAL
PRIMVEC
0.027855 6.441158 6.227786 
6.382013 0.006329 6.249292 
4.255568 4.309270 0.003184 
PRIMCOORD
36 1
Li	      8.43808      2.18921      6.25702        -0.067664      0.024336      0.019048
Li	      2.16876      0.03649      2.14566        -0.060123      0.131686     -0.118364
Li	      4.20382      2.09840      2.14492        -0.117915      0.004934     -0.112233
Li	      8.40488      4.37506      4.13881         0.110763     -0.103848      0.011689
Li	      6.41805      2.20975      4.22791         0.159634     -0.126337      0.063200
Li	      8.53593      4.28472      8.22475         0.037572     -0.072161     -0.071531
Li	      4.30724      2.11116      6.19007         0.191969     -0.067314      0.206967
Li	      6.51897      4.22156      6.19995         0.157164     -0.227587      0.246173
Li	      8.48382      6.54229     10.39154         0.019805      0.073129     -0.084977
Sc	      4.35171      4.20067      4.13036        -0.399951      0.562048     -0.523126
Sc	     10.60599      8.59428     10.37254        -0.171735     -0.075317     -0.395856
Mn	      8.53267      8.60516      8.32518         0.271447     -0.258617      0.063408
V	     10.51391      4.40142      6.25382        -0.032371      0.655516      0.492446
V	      6.34610      8.66138      6.30774        -0.121729      0.419025      0.326017
V	      6.44491      6.45164      8.32287         0.246964     -0.273996      0.379525
Co	      0.19579      2.14310      2.03160        -1.773271      0.157302     -0.143165
Co	      6.47042      6.35198      4.19476        -0.001432     -0.207507     -1.199466
Co	      4.19602      6.48611      6.26490        -0.171582      0.048425      0.004304
O	      2.01969      2.16214      2.09051         1.225596     -0.102349      1.527421
O	      4.19846      4.43661      2.01990         0.190039     -0.659916      0.157871
O	      4.23541      2.20319      4.13512        -0.603965     -0.202168      0.105650
O	      6.34794      4.30700      4.21174         0.246711      0.711327      0.142564
O	      6.42142      2.01622      6.29595         0.174976     -0.238001     -0.203757
O	      8.74943      4.27142      6.21850        -0.067009      0.051699     -0.140274
O	      2.13609      4.25698      4.37443         0.143681     -0.410450      0.053611
O	      4.24707      6.45242      4.14868         0.517678     -0.121328      0.381904
O	      4.12671      4.35418      6.29502        -0.095495      0.046029     -0.139563
O	      6.34610      6.59387      6.31540        -0.030397     -0.073671     -0.780066
O	      6.50435      4.31216      8.28446         0.050355      0.525673      0.141407
O	      8.45050      6.62300      8.29428        -0.138251      0.133833     -0.015357
O	      2.01456      6.31669      6.27335         0.136907     -0.279927     -0.081343
O	      4.33700      8.68337      6.24552         0.149563     -0.144842     -0.093989
O	      4.40516      6.29396      8.29410        -0.048019      0.029245     -0.029811
O	      6.33937      8.54351      8.16993        -0.118901      0.070721     -0.076734
O	      6.45193      6.39702     10.40472        -0.033475     -0.044778     -0.079261
O	      8.57341      8.58656     10.26872         0.022465      0.045185     -0.034333
