# total energy = -99.75781911 eV
 
CRYSTAL
PRIMVEC
0.002130 2.131880 2.125668 
6.895697 4.595365 -6.703128 
-4.365129 2.120797 -2.118326 
PRIMCOORD
16 1
Li	      0.34354      0.29263     -0.28601         0.011883      0.019467     -0.016443
Li	     -2.41813      4.04232     -1.90897        -0.014909     -0.014843      0.014016
Li	     -1.86601      2.42227     -0.28531         0.015450      0.015228     -0.013783
Li	     -0.26462      1.91951     -1.91604        -0.012564     -0.021381      0.018243
Ti	      2.24157      4.39111     -2.24715        -0.440547     -0.156520      0.160792
Ti	      4.73529      4.54468     -4.53324         0.437274      0.156741     -0.158394
Ni	      0.17285      4.46231     -4.44538         0.001427     -0.004481      0.010914
Ni	      2.43864      6.59448     -4.45308        -0.001290      0.003603     -0.010189
O	      0.12118      6.64341     -4.49877        -0.051074      0.063460     -0.065095
O	      0.44823      4.62695     -2.47899         0.485798     -0.124135      0.125119
O	      2.49004      4.41333     -4.39960         0.053903     -0.061459      0.064141
O	      0.04036      2.17183     -0.03807         0.000492      0.001392     -0.001830
O	      2.52087      2.50816     -2.49065        -0.103316      0.187154     -0.186034
O	      2.16340      6.42995     -6.41952        -0.484514      0.121908     -0.124271
O	     -2.14319      2.16637     -2.16005        -0.000140      0.000914     -0.001534
O	      4.45574      6.42761     -4.28950         0.102127     -0.187047      0.184348
