# total energy = -230.32637592 eV
 
CRYSTAL
PRIMVEC
0.006394 6.446140 6.177805 
6.447808 0.029352 6.154124 
4.306000 4.289444 0.011732 
PRIMCOORD
36 1
Li	      6.48852      4.28931      2.17726        -0.004582     -0.039796     -0.075654
Li	      4.30648      2.08842      2.13793        -0.035186      0.007518     -0.051300
Li	      4.10991      0.17458      4.07059        -0.037456     -0.012458     -0.002353
Li	      0.06923      2.22361      2.10833        -0.031411     -0.026564     -0.052249
Li	      2.11046      4.16076      2.08657        -0.045776      0.043072     -0.035248
Li	      6.29878      4.44667      6.11629         0.063346     -0.063140      0.086955
Li	      6.44018      8.50563      6.26791        -0.010420      0.036473      0.012230
Li	      4.53543      6.38933      6.14535        -0.116403      0.010119      0.048724
Li	      6.38016      6.52465      8.18408         0.045154      0.013823      0.055386
Sc	      2.13349      2.19392      0.11097         0.019029     -0.009162      0.005812
Sc	      8.48985      6.45788      6.16065         0.000063     -0.058225      0.037471
Mn	      0.06651      4.28648      4.07083        -0.007217      0.020555     -0.025204
V	      4.32724      4.29014      0.11444        -0.006509     -0.021408      0.110506
V	      2.21700      6.37176      4.05890         0.009378      0.037119      0.022180
V	      4.29348      4.54173      8.21019         0.005101      0.025909     -0.021549
Cu	      6.39421      2.22075      4.05882         0.058512     -0.051140      0.026027
Ni	      6.42821      6.32772      4.07923        -0.085838      0.096413      0.013913
Ni	      4.33221      4.26437      4.07452        -0.098199      0.007583     -0.033123
O	      2.11003      2.15148      2.05774         0.058127     -0.030985     -0.118439
O	      4.37046      4.24996      1.88569        -0.055948     -0.005815     -0.020265
O	      4.16367      2.22920      4.09472         0.029408     -0.121523      0.014656
O	      6.35958      4.25863      4.13703         0.121309     -0.043974     -0.014765
O	      6.44628      2.04248      6.10005         0.023304      0.032068      0.091449
O	      8.77780      4.32335      6.13383        -0.015535      0.006154      0.004005
O	      2.07641      4.42697      4.06337         0.039721     -0.017139     -0.012463
O	      4.18974      6.31167      4.14361         0.001455      0.100104      0.003969
O	      4.30735      4.24703      6.28394        -0.037837      0.001749      0.038541
O	      6.48923      6.44282      6.13319         0.008916      0.018880      0.083357
O	      6.32736      4.30634      8.31351        -0.010511      0.054483     -0.037204
O	      8.60790      6.57024      8.35914         0.016630      0.019705     -0.039810
O	      2.05603      6.51463      6.00517         0.044944     -0.007050      0.012191
O	      4.29274      8.71277      6.07415        -0.011679      0.012199     -0.019243
O	      4.32824      6.31023      8.24778         0.001412     -0.019545     -0.009028
O	      6.68526      8.61329      8.31656         0.037761     -0.002622     -0.074827
O	      6.62772      6.53500     10.37359         0.009688     -0.025010     -0.013556
O	      8.83686      8.48332     10.24006         0.017247      0.011629     -0.011091
