# total energy = -228.80265382 eV
 
CRYSTAL
PRIMVEC
0.067883 6.084734 6.498125 
6.395511 0.021904 6.545860 
4.256333 4.080530 0.021523 
PRIMCOORD
36 1
Li	      2.24657      8.16512      6.51099         0.003929     -0.090673      0.131282
Li	      4.29213      8.15231      8.61650        -0.065628      0.129417     -0.111145
Li	      6.38704      2.10205      4.35336        -0.104071      0.066819      0.000325
Li	      6.43970      2.14837      8.74099         0.063701     -0.066975      0.049368
Li	      8.42038      4.01321      8.73342         0.009143     -0.080890      0.182640
Li	      4.22493      4.02633      4.40444        -0.050482      0.070949     -0.031885
Li	      6.46844      4.04018      6.71188        -0.015119     -0.008638      0.068659
Li	      0.08322      4.03242      4.27241         0.193991     -0.081681     -0.020343
Li	      2.16920      4.07650      6.49840        -0.020029     -0.012813     -0.074773
Sc	      2.20109      6.04128      4.29518         0.199108     -0.760819      0.135441
Sc	      4.37209      6.17123      6.51494         0.117444      0.042380     -0.474415
Mn	      6.46355      6.12101      8.70746         0.117321      0.090685     -0.189428
V	      6.22677      4.12796      2.21036        -0.600914      0.193050     -0.017401
V	      8.59739     10.14087     10.87256        -0.393695     -0.134131      0.189857
V	      4.39735      2.06623      6.55044        -0.089574      0.160196     -0.072085
Cu	      4.26987     10.07317      6.54543         0.228909      0.032868      0.149716
Cu	      2.11607      2.12497      4.30328        -0.318122      0.077485      0.025217
Ni	      4.35547      4.07696      8.69567         0.035955     -0.075477     -0.154630
O	      2.10392      1.84174      2.07266         0.108460      0.001487     -0.084536
O	      4.48518      4.03468      2.28324         0.102294     -0.028906     -0.018194
O	      4.16303      2.00673      4.57698         0.499414     -0.805576     -0.029838
O	      6.48603      4.17823      4.13926         0.479843     -0.420588      0.003870
O	      6.20525      1.93075      6.53392         0.113435      0.193375     -0.031663
O	      8.56459      4.11320      6.43632        -0.413504     -0.200725     -0.816192
O	      2.15918      4.04226      4.30265         0.014771      0.761062      0.046198
O	      4.27859      6.09036      4.44752        -0.534199     -0.015891      0.105148
O	      4.36380      4.00406      6.57990         0.009483     -0.034327      0.004221
O	      6.54816      6.11749      6.75387         0.095949     -0.029706      0.157933
O	      6.40186      4.19032      8.70237         0.007319     -0.055780      0.056776
O	      8.62595      6.10388      8.67672         0.004573      0.026200      0.007473
O	      2.20858      6.08180      6.59054         0.217693      0.037537     -0.097470
O	      4.33024      8.16095      6.54863        -0.021936     -0.226923     -0.003916
O	      4.20112      6.12545      8.69031         0.151523      0.197212      0.738381
O	      6.50274      8.25705      8.71721         0.035853     -0.225480      0.006261
O	      6.36129      6.15653     10.66693        -0.256607      0.028671     -0.060865
O	      8.52219      8.17540     10.84235         0.073766      1.246606      0.230013
