# total energy = -229.85040265 eV
 
CRYSTAL
PRIMVEC
0.037911 6.223018 6.616343 
6.184505 0.018728 6.637679 
4.127291 4.166967 0.006473 
PRIMCOORD
36 1
Li	      4.22767     10.33130      6.63168        -0.090931      0.130588      0.006417
Li	      1.98324      0.08895      2.04203         0.113788     -0.043784      0.050390
Li	      4.20296      8.28934      8.71857         0.081209     -0.120232      0.132378
Li	      4.30901      6.20980     11.08681         0.005693     -0.018627     -0.103034
Li	      6.11668      2.12178      4.45019         0.043592      0.016566     -0.088656
Li	      4.18096      2.04186      6.50461         0.010962      0.029378     -0.024244
Li	      4.09508      8.38713      4.68908        -0.064499     -0.020521     -0.119457
Li	      4.08305      6.34666      6.63637         0.053650     -0.158975      0.066285
Li	      6.18396      6.26712      8.80036        -0.079461      0.045839      0.013182
Sc	      8.30923      4.18670      8.73280        -0.178371      0.051934     -0.044159
Sc	      6.18924      6.23702      4.49517        -0.029322     -0.155959     -0.013478
Mn	      4.12849      4.12796      4.39474         0.178535      0.008119      0.168239
V	      8.15339      6.32803     11.08687         0.186935      0.326900     -0.216370
V	      6.17099      4.10361      6.64758        -0.182404      0.095514     -0.029794
V	      4.02927      4.30082      8.82874         0.838205      0.004617     -0.035685
Cu	      2.18667      8.31896      6.60768        -0.193244      0.062251     -0.129193
Cu	      0.03082      2.05572      2.17572        -0.031641      0.096409      0.003776
Cu	      6.08713      8.37842      6.79107         0.167963     -0.061659      0.084670
O	      4.13261      8.30340      6.66627         0.195749      0.045634      0.082579
O	      2.00864      2.12136      2.40233         0.191548     -0.127121     -0.009598
O	      4.13918      4.24441      2.20830         0.149225     -0.217753     -0.128315
O	      4.09610      2.20911      4.43678         0.057095     -0.108253      0.020015
O	      6.05890      4.17581      4.61400         0.055754     -0.030509     -0.128351
O	      6.29455      2.27384      6.51020         0.128627     -0.482816     -0.114609
O	      8.22683      4.14095      6.66401         0.273213     -0.018036     -0.070980
O	      2.13788      4.20597      4.35420        -0.164266     -0.002346      0.217487
O	      4.04473      6.07791      4.53933        -0.060243      0.078608      0.194580
O	      4.22339      4.04985      6.87114        -0.497411     -0.058291     -0.530465
O	      6.22297      5.97842      6.59531         0.040593      0.409662      0.033494
O	      6.14874      4.10995      8.66369         0.214521      0.052674      0.120052
O	      8.33237      6.29826      8.99288        -0.102760     -0.120595      0.010967
O	      2.08390      6.38010      6.39435         0.021105     -0.006105      0.130536
O	      4.14960      6.04116      8.87872        -0.032934      0.563101     -0.035076
O	      6.36048      8.28506      8.80149        -1.055306     -0.071912     -0.264722
O	      6.39830      6.23036     10.99520        -0.213596     -0.075395      0.126146
O	      8.35744      8.23052     10.75607        -0.031570     -0.118904      0.624993
