# total energy = -235.18064607 eV
 
CRYSTAL
PRIMVEC
0.043602 6.299929 6.282618 
6.414516 0.049837 6.276717 
4.306453 4.226655 0.002693 
PRIMCOORD
36 1
Li	      4.34400      4.18650      0.11046         0.052913      0.006287      0.030693
Li	      6.32336      4.26983      2.20577        -0.102088      0.033523      0.061545
Li	      4.18865      0.08696      4.14776         0.003542     -0.007629      0.008934
Li	      6.34198      2.23202      4.13476        -0.085110     -0.000004     -0.081738
Li	      2.29580      4.15340      2.09688         0.076687     -0.069804     -0.054409
Li	      2.18705      2.05260      4.09395        -0.004120     -0.029001     -0.103214
Li	      4.40657      4.18885      4.08414         0.142428     -0.036353     -0.022878
Li	      6.43333      8.45447      6.30216        -0.071121     -0.061286      0.065511
Li	      4.34444      6.33840      6.26062         0.055455      0.013105     -0.055601
Sc	      4.31308      2.07489      6.13942         0.005361     -0.024619      0.085262
Sc	      8.49052      8.57245      8.38964        -0.112117      0.009705      0.002113
Mn	      2.23105      6.24956      4.21280        -0.011343      0.003728     -0.061180
V	      2.27016      8.36767      6.36564        -0.045705      0.202372      0.049937
V	      0.14656      4.17076      4.19491        -0.218365      0.017706     -0.002522
V	      6.38317      6.38122      8.38560         0.117338     -0.004076     -0.048436
Fe	      6.42580      4.24796      6.06848         0.004174     -0.038249      0.341271
Co	      4.31071      2.18002      2.16119        -0.012528      0.153172      0.065740
Cu	      4.39368      6.16356      2.15378         0.016133     -0.011047     -0.100436
O	      2.37316      2.14634      2.00005         0.177857      0.008942      0.097492
O	      4.28133      4.12552      2.10008         0.007514     -0.015435     -0.040124
O	      4.30167      2.13069      4.13539         0.001794     -0.024013     -0.023486
O	      6.44378      4.23879      4.23929         0.012302     -0.042702     -0.311439
O	      6.49314      2.19291      6.40890        -0.001859      0.010201     -0.011936
O	      8.47427      4.14071      6.27172         0.023062      0.043281      0.053068
O	      1.93793      4.16403      4.27101         0.102703      0.007794      0.053102
O	      4.33527      6.42548      4.09483        -0.060579     -0.045865      0.098908
O	      4.38196      4.19677      6.33062        -0.056016      0.008378     -0.012825
O	      6.52700      6.24771      6.38225        -0.050532      0.038403     -0.065782
O	      6.33644      4.29718      8.49756        -0.034246     -0.042626     -0.039592
O	      8.44193      6.43097      8.31549        -0.149464      0.028971      0.061571
O	      2.17233      6.56069      6.28934        -0.001810     -0.136436     -0.033072
O	      4.21843      8.45327      6.25710         0.126015     -0.040273     -0.002896
O	      4.40470      6.45225      8.35948        -0.049949     -0.041389     -0.108880
O	      6.39439      8.44161      8.37747         0.009759      0.038142     -0.021454
O	      6.46620      6.23280     10.36812         0.089410      0.008655      0.098169
O	      8.77095      8.49070     10.51582         0.042507      0.038443      0.028583
