# total energy = -237.12829067 eV
 
CRYSTAL
PRIMVEC
-0.005386 6.409728 6.283720 
6.471627 -0.001608 6.279592 
4.306359 4.262740 0.006120 
PRIMCOORD
36 1
Li	      4.34527      4.27483      0.21854        -0.003005      0.004785     -0.045889
Li	      8.47864      2.22459      6.46543        -0.064223      0.042114     -0.000388
Li	      1.96312      0.23767      2.11060        -0.011887      0.037714      0.012096
Li	      4.02344      2.35905      2.10939        -0.015518     -0.009983     -0.024852
Li	      0.20572      2.01665      2.09817         0.014865      0.015487     -0.035801
Li	      2.33657      4.03150      2.13827        -0.036381     -0.006476     -0.019704
Li	      2.08202      2.17124      3.93326         0.002458      0.003652     -0.002157
Li	      2.22370      6.33164      4.07413         0.056944     -0.044639     -0.008277
Li	      6.54927      6.41194      8.42702         0.022989     -0.021934     -0.009178
Sc	      8.64891      6.33283      6.35000        -0.064536     -0.012627     -0.011267
Sc	      4.34363      6.45413      6.31748         0.077958      0.029607      0.005116
Mn	      8.62139      8.44910      8.42353        -0.000433      0.057851     -0.072382
V	      4.30196      6.39809     10.40682         0.094613     -0.037499      0.024244
V	      6.48608      4.28404     10.39961         0.029882      0.132778      0.170255
V	      2.13322      4.36739      6.27117        -0.104973     -0.152327     -0.006470
Fe	      6.46691      8.51338     10.43484         0.020658     -0.071410     -0.138685
Co	      4.27142      4.36931      4.01898        -0.069280      0.036099     -0.080024
Co	      6.50987      4.22153      6.32590        -0.099963     -0.005866     -0.055770
O	      2.14623      2.14814      2.04710        -0.000722     -0.016757      0.012951
O	      4.28357      4.28773      2.13575         0.022649     -0.010300     -0.009600
O	      4.44017      1.97676      4.15577        -0.066926     -0.115403     -0.045432
O	      6.56049      4.15177      4.22302         0.078308      0.055251      0.063820
O	      6.40253      2.15752      6.14447         0.032678      0.063184      0.148520
O	      8.57647      4.30655      6.08352        -0.048975      0.039738     -0.032138
O	      2.09818      4.28927      4.33473         0.180699     -0.002810     -0.152128
O	      4.28203      6.54041      4.29361        -0.006634     -0.006896     -0.022054
O	      4.23408      4.26984      6.15591         0.028911      0.026451     -0.068059
O	      6.46789      6.52198      6.32486        -0.018293     -0.024949      0.024574
O	      6.28966      4.29345      8.42311        -0.013330     -0.036180     -0.064780
O	      8.61402      6.53282      8.35237        -0.020394     -0.014878      0.056810
O	      2.24173      6.15060      6.34861        -0.037302      0.145701      0.038104
O	      4.49360      8.49957      6.21492        -0.052231     -0.012356      0.157614
O	      4.31064      6.23507      8.50854         0.000336     -0.015273      0.030177
O	      6.64380      8.46159      8.37384         0.031323     -0.044881      0.102079
O	      6.30415      6.36043     10.48072         0.080042      0.072376     -0.001920
O	      8.60064      8.64083     10.55329        -0.040308     -0.099344      0.060596
