# total energy = -232.12804793 eV
 
CRYSTAL
PRIMVEC
0.010735 6.414221 6.293396 
6.335218 0.044602 6.259223 
4.267789 4.297578 -0.014001 
PRIMCOORD
36 1
Li	      2.16399      2.13800      0.13976         0.028005     -0.073740     -0.043203
Li	      2.23495      0.25226      2.06912        -0.065030     -0.142913      0.024488
Li	      3.98068      1.98076      2.12704         0.032857      0.064509     -0.165811
Li	      4.17401      0.12497      4.08494        -0.014546     -0.113107     -0.067217
Li	      2.07684      4.12180      2.10392        -0.069632     -0.074426      0.101884
Li	      2.15364      2.11146      4.04349        -0.168600      0.022298      0.049892
Li	      4.28977      8.52149      4.25114         0.029206     -0.000657      0.039666
Li	      4.23612      6.52896      6.31768        -0.053102      0.105074     -0.009025
Li	      6.29164      6.43216      8.32058        -0.102750      0.041180      0.019214
Sc	      6.32331      8.59079     10.36158         0.518583      0.120307     -0.362275
Sc	      4.36717      4.46606      8.36255         0.061157      0.432100      0.204140
Mn	      2.15719      6.40744      4.18954         0.037642     -0.223094      0.431589
V	      4.24692      4.22201      0.15393         0.314747     -0.189229      0.162906
V	      4.23543      2.17698      6.27188        -0.579863     -0.451683      0.372190
V	      6.29918      8.55537      6.32443        -0.033154      0.096581     -0.218930
Fe	      6.51827      4.41545      6.21964        -0.251567      0.032187     -0.013253
Cu	      0.09454      2.18342      2.18063         0.236916      0.005353      0.206747
Ni	      4.23664      4.32147      4.13781        -0.020523      0.215702     -0.214371
O	      2.00720      2.16429      2.11147         0.143719      0.015522     -0.009563
O	      4.18419      4.22458      1.94997        -0.102565      0.045341     -0.142434
O	      4.26155      2.22588      4.22377        -0.104328     -0.164104      1.075010
O	      6.32186      4.26264      4.28727         0.047532     -0.162647     -0.358823
O	      6.30122      2.11565      6.19415        -0.586060     -0.012120     -0.145171
O	      8.53450      4.39125      6.16772         0.382969      0.895751     -0.063845
O	      2.14577      4.39635      4.40041         0.036140      0.032793     -0.331283
O	      4.09363      6.37428      4.19883        -0.009322      0.042073      0.046816
O	      4.18547      4.25958      6.25214         0.115697     -0.803508      0.092811
O	      6.45577      6.51892      6.21928         0.900349     -0.026006      0.026580
O	      6.40728      4.43134      8.13668        -0.177367      0.018470      0.404557
O	      8.64557      6.51061      8.24115        -0.189595     -0.014764     -1.694315
O	      1.96419      6.25122      6.37946        -0.097808      0.241251     -0.017206
O	      4.36105      8.66538      6.28867        -0.173376      0.046951      0.036904
O	      4.25234      6.42164      8.39745         0.037539     -0.044692     -0.013840
O	      6.46129      8.51435      8.21816         0.172711     -0.135851      0.630170
O	      6.49282      6.49052     10.62424        -0.191479      0.055217      0.021651
O	      8.46252      8.43728     10.40119        -0.105105      0.103881     -0.076652
