# total energy = -232.87929448 eV
 
CRYSTAL
PRIMVEC
0.027944 6.389013 6.300891 
6.245901 0.036686 6.291897 
4.197029 4.285420 -0.007799 
PRIMCOORD
36 1
Li	     10.40482      4.32466      6.25566        -0.168070      0.226167      0.259753
Li	      8.31428      2.25691      6.30752        -0.254579      0.217014      0.196731
Li	      2.06794      0.02403      2.08757        -0.068577      0.069159      0.123964
Li	      6.28659      2.18034      4.21224        -0.170209      0.189901      0.035291
Li	      8.34694      4.28727      8.31787         0.179701     -0.033227     -0.215850
Li	      6.29879      4.27760      6.30215         0.044699     -0.052833     -0.097422
Li	      6.32608      8.54131      6.32474         0.235316     -0.100318      0.142992
Li	      4.18733      6.43624      6.34551         0.034121     -0.165116      0.196686
Li	      6.29677      6.37850      8.38067         0.031590      0.017327     -0.176826
Sc	      4.24944      8.54217      8.26314        -0.178587      0.145033      0.942424
Sc	      6.20182      6.42861      4.22303         0.894802     -0.798553     -0.271368
Mn	      4.20412      4.30001      4.20530         0.420324     -0.379706      0.040863
V	      2.04518      6.42800      4.39657         0.814596     -0.066556     -0.177342
V	      8.43442      6.34429      6.30584         0.282777     -0.115082     -0.169700
V	      4.13169      4.33422      8.34962        -0.414926      0.019903     -0.690417
Fe	      4.21461      8.57516      4.27762        -0.579534      0.718519     -0.218419
Cu	      8.38945     10.65392     10.52415        -0.336150      0.198440     -0.065711
Cu	      0.06868      2.08578      2.01879         0.334865     -0.318516     -0.397693
O	      2.07888      2.16939      2.11342         0.523690      0.069844      0.066524
O	      4.21318      4.23513      2.18961        -0.027518     -0.416184     -0.486625
O	      4.13837      2.13996      4.21358        -0.088712      0.419053     -0.068892
O	      6.10325      4.37247      4.21250         0.261621      0.012977      0.017549
O	      6.05163      2.15596      6.21483         0.187074     -0.023102     -0.205969
O	      8.35416      4.41627      6.18189         0.019250     -0.177288      0.443836
O	      2.21085      4.38091      4.18793        -1.749752     -0.064908      0.048554
O	      4.12308      6.41441      4.29483        -0.099481      1.340809      0.351107
O	      4.18862      4.18310      6.34680        -0.010633      0.237955      0.558859
O	      6.51446      6.45256      6.26481        -0.398780      0.085076     -0.003207
O	      6.05579      4.23655      8.45711         0.308722      0.401213      0.951334
O	      8.46371      6.52209      8.35341        -0.603322      0.071077      0.336038
O	      2.11806      6.44816      6.13011        -0.138285      0.045871     -0.058845
O	      4.24169      8.53390      6.30377        -0.005042      0.004035     -1.505239
O	      4.20709      6.33713      8.48676         0.033898     -0.039340     -0.461988
O	      6.45111      8.56621      8.36113        -0.043973     -0.037709      0.054963
O	      6.44679      6.40731     10.41843        -0.245887     -1.144898      0.118844
O	      8.31366      8.46872     10.38826         0.974970     -0.556038      0.385202
