# total energy = -237.58185206 eV
 
CRYSTAL
PRIMVEC
0.010606 6.332721 6.349074 
6.354290 0.023162 6.336221 
4.241586 4.218560 0.010308 
PRIMCOORD
36 1
Li	      2.13504      6.32762      8.44545        -0.019461      0.017856      0.020319
Li	      4.30465      8.38138      8.46291         0.005712     -0.038881     -0.015329
Li	      4.25196      4.22308      4.34239         0.023415      0.040360      0.046229
Li	      4.20017      2.21836      6.32240        -0.015411      0.007599     -0.002100
Li	      6.26513      4.28916      6.36778         0.000898      0.010079     -0.001929
Li	      4.26942      8.41562      4.24023         0.046072     -0.003960     -0.002648
Li	      2.16722      6.33363      4.24078         0.045065     -0.028846     -0.000280
Li	      4.31222      6.25327      6.39767         0.054591     -0.040052     -0.005935
Li	      6.29361      6.37302      8.37091        -0.045911     -0.012814     -0.014566
Sc	      2.20783      8.33198      6.35385        -0.016905      0.018515     -0.003051
Sc	      8.41594      4.34248      8.46313        -0.020019      0.022007      0.046275
Mn	      6.37002      6.37898     12.66291         0.003153     -0.007577      0.066145
V	      8.42737      4.23968      4.20451         0.006523     -0.063928     -0.016069
V	      6.28035      2.16492      4.15511        -0.030991      0.029929     -0.002023
V	      6.30998      6.33563      4.31193        -0.174951     -0.041564     -0.015729
Fe	      2.17573      4.24919      6.37862        -0.039505      0.009473     -0.052436
Fe	      4.30388      4.23234      8.41954        -0.030850     -0.007103      0.106033
Cu	     10.56642      6.37014      8.46911         0.027082     -0.024677      0.122326
O	      2.05912      2.15263      2.12930         0.182112     -0.024809     -0.001007
O	      4.18503      4.33882      1.92876         0.034776     -0.089666     -0.014354
O	      4.11242      2.09384      4.16143         0.042741      0.048485      0.021598
O	      6.41053      4.22045      4.25998        -0.023603      0.000545     -0.022245
O	      6.39228      2.02479      6.15577        -0.030433     -0.047934     -0.089829
O	      8.40883      4.16130      6.32319        -0.042346      0.046672      0.038848
O	      2.15581      4.11714      4.25713         0.003085      0.070991     -0.040091
O	      4.52791      6.27169      4.31252         0.029502      0.044902      0.060233
O	      4.16453      4.23226      6.45778         0.120182     -0.013385     -0.089576
O	      6.39096      6.45384      6.25476        -0.004981     -0.056783      0.086434
O	      6.32098      4.18757      8.47025         0.129612      0.101062      0.022332
O	      8.55253      6.39096      8.53684        -0.161626     -0.044436     -0.029930
O	      2.19270      6.28417      6.30784         0.037767      0.077182      0.012580
O	      4.30234      8.57411      6.36525        -0.029567      0.038894     -0.018449
O	      4.28722      6.23671      8.59270        -0.072629      0.092933     -0.078975
O	      6.42617      8.42925      8.48446        -0.038455      0.022398     -0.019202
O	      6.23246      6.46385     10.69524         0.009443     -0.095933     -0.097750
O	      8.42775      8.46957     10.56234        -0.004088     -0.057536     -0.015848
