# total energy = -237.08525552 eV
 
CRYSTAL
PRIMVEC
0.002977 6.384663 6.333274 
6.299335 0.017525 6.318723 
4.204796 4.252006 0.006249 
PRIMCOORD
36 1
Li	      2.11184      2.12227      0.03098         0.054094     -0.031864      0.054970
Li	      8.36115      4.26171      4.26019        -0.046506     -0.027429      0.024074
Li	      8.38000      4.27140      8.45401        -0.016098      0.031711      0.039213
Li	      2.09468      2.15586      4.20389        -0.006548     -0.014180      0.006870
Li	      6.35515      4.27621      6.32953         0.039559      0.048836     -0.065083
Li	      2.15262      6.31123      4.24896        -0.070543     -0.011702      0.032007
Li	      2.15121      4.29757      6.28362        -0.015748      0.046373     -0.070373
Li	      4.14887      6.35637      6.30346        -0.057864     -0.030930     -0.054904
Li	      6.29595      6.39224      8.45126         0.024584     -0.062000      0.057009
Sc	     10.48042      4.28670      6.33567         0.068155     -0.236031     -0.325385
Sc	      0.11716      4.23706      4.25378         0.029506      0.253590      0.074271
Mn	      6.29950      4.25580      2.11154         0.070261      0.049651      0.189043
V	      6.34529      8.51189     10.56038         0.216552     -0.165755     -0.047087
V	      8.22198      6.38731      6.31441        -0.294327     -0.002436      0.067378
V	      4.21133      4.29577      8.38009        -0.078360      0.129614      0.089300
Fe	      4.16967      8.39510      8.40167        -0.126387      0.019657      0.042057
Fe	      0.05295      2.19239      2.14105         0.076412     -0.065099      0.129311
Ni	      4.12176      4.30369      4.25659         0.147580     -0.000356      0.038440
O	      2.14194      2.11049      2.12472        -0.069381      0.074368     -0.017273
O	      4.20432      4.25782      2.14839         0.015279      0.006976     -0.154943
O	      4.28341      2.16001      4.23280         0.006768     -0.029062     -0.050224
O	      6.25967      4.12492      4.06255         0.000083      0.737541     -0.138064
O	      6.22415      2.14382      6.35702         0.098876      0.126012     -0.605924
O	      8.42371      4.43727      6.32511        -0.037898      0.003596      0.068065
O	      2.08827      4.28465      4.24320        -0.082840     -0.033889     -0.018621
O	      4.20628      6.38859      4.13087         0.002516      0.083149      0.053066
O	      4.21502      4.16099      6.35557         0.040401     -0.009454      0.150647
O	      6.47525      6.35836      6.31403         0.028094      0.041533     -0.014128
O	      6.27586      4.18947      8.47499         0.076261      0.105389     -0.103317
O	      8.50180      6.51280      8.29568        -0.011083     -0.035914     -0.092948
O	      2.06109      6.41341      6.52207         0.003624     -0.012883      0.011019
O	      4.17655      8.54882      6.40187        -0.027792     -0.037962      0.020284
O	      4.18637      6.38712      8.40561        -0.030515     -0.097130     -0.059808
O	      6.24096      8.49336      8.47572        -0.081170     -0.098790      0.450054
O	      6.33630      6.43214     10.59339         0.027025     -0.652942      0.119371
O	      8.35079      8.53271     10.40865         0.027432     -0.102191      0.101632
