# total energy = -240.27859287 eV
 
CRYSTAL
PRIMVEC
-0.003105 6.317100 6.340892 
6.413672 -0.003765 6.341335 
4.280427 4.216478 -0.007304 
PRIMCOORD
36 1
Li	      0.05377      6.23598      6.24373         0.022595     -0.021571     -0.037660
Li	      4.37438      6.27228     10.52852         0.038446      0.025835     -0.028832
Li	      4.25008      4.28794      4.22969        -0.033436     -0.011329     -0.045008
Li	      6.37698      4.24328      6.38285        -0.032688      0.025596      0.058706
Li	      6.42126      4.32514     10.59520         0.012851     -0.006914      0.031903
Li	      2.07617      6.27949      4.29540         0.001841     -0.014353      0.042056
Li	      2.11999      4.27296      6.30775        -0.008375     -0.028164     -0.020838
Li	      4.26159      6.28577      6.29761        -0.005923      0.025857     -0.032114
Li	      6.38480      6.25198      8.54358         0.001785     -0.017709      0.040551
Sc	      6.44811      8.28805     10.57042         0.018898     -0.033537      0.030996
Sc	      8.51554      6.31455      6.32538        -0.004586      0.006289      0.002824
Mn	      4.38635      4.26274      8.47645        -0.025096     -0.035764     -0.011489
V	      8.62204      8.43617     12.61310         0.003926     -0.011313     -0.037278
V	      4.29955      8.40109      8.40778         0.022147     -0.011660     -0.041952
V	      6.31091      6.30022      4.31349        -0.123527      0.029348      0.073881
Fe	      2.11363      6.31052      8.36474         0.037866      0.007957     -0.010617
Fe	      4.25787      6.28642      2.14651        -0.038084      0.042372     -0.023293
Fe	      8.43977      4.25179      8.48673         0.056227     -0.038729      0.005122
O	      2.17633      2.11473      2.08771         0.057144      0.013525      0.033207
O	      4.29915      4.10961      2.12778        -0.013215     -0.051563     -0.024919
O	      4.27169      2.11239      4.21686        -0.041329      0.016212      0.000856
O	      6.41550      4.41190      4.09559         0.025206     -0.055047     -0.016175
O	      6.46243      2.13221      6.33080        -0.024624      0.015020     -0.074021
O	      8.53488      4.16639      6.45809        -0.018660      0.034131      0.011383
O	      2.16926      3.98674      4.11386         0.019939     -0.027813      0.035874
O	      4.41267      6.28304      4.18656         0.132656     -0.021684      0.145104
O	      4.30341      4.15451      6.56848        -0.012263      0.014583      0.095446
O	      6.44607      6.32783      6.18790         0.025902     -0.001586     -0.010536
O	      6.45079      4.21868      8.46604        -0.112270      0.062196      0.025441
O	      8.55157      6.23231      8.43093        -0.119799      0.048933     -0.038645
O	      2.11521      6.44395      6.39802         0.004808     -0.001774     -0.038383
O	      4.16237      8.43834      6.43903         0.008818      0.008052     -0.017240
O	      4.16553      6.38955      8.45543         0.027854     -0.040805     -0.015193
O	      6.41843      8.53077      8.46200         0.082188     -0.060947     -0.002858
O	      6.41555      6.35948     10.55699         0.015768      0.088158     -0.001813
O	      8.52428      8.44442     10.47125        -0.002991      0.028195     -0.104486
