# total energy = -238.19425449 eV
 
CRYSTAL
PRIMVEC
0.021964 6.381288 6.582799 
6.200703 0.043130 6.562349 
4.144955 4.252181 0.017264 
PRIMCOORD
36 1
Li	      2.14601      8.46755      6.57484         0.037189     -0.019407     -0.035904
Li	      4.08914      2.15668      2.18211         0.049061     -0.014978     -0.020112
Li	      4.18869      6.35015      2.28128        -0.015329      0.015234      0.052867
Li	      2.11354      4.20481      2.30917        -0.009603     -0.065378      0.011496
Li	      4.05694      4.32548      4.31328         0.001948      0.048058     -0.045375
Li	      6.22773      4.34176     10.88108         0.065455      0.013516     -0.026124
Li	      2.15743      6.34806      4.44252         0.064355     -0.025592     -0.019995
Li	      4.11710      6.43166      6.55179        -0.001467      0.021824     -0.030599
Li	      6.17276      6.37147      8.80657        -0.021844      0.038858      0.046075
Sc	      6.18819      8.48708     10.93239        -0.020807     -0.074330     -0.004819
Sc	      6.26629      4.26426      6.64471        -0.044984      0.029388      0.000535
Mn	      2.09648      6.44541      8.71917        -0.042179     -0.053150     -0.012114
Mn	      8.25152      6.39847      6.64982        -0.020521      0.027168      0.086832
V	      4.21767     10.48753      6.61577         0.081719     -0.016397      0.004974
V	      6.07881      6.44976      4.35531        -0.185700      0.056956     -0.021788
V	      8.33787      8.50493      8.82249        -0.025903     -0.014515     -0.057091
Co	      4.16316      6.39004     10.93931        -0.085737     -0.034977      0.064063
Cu	      2.12933      4.31370      6.51440        -0.080491      0.099581     -0.049932
O	      2.09634      2.01977      2.39024         0.010054     -0.030185     -0.066216
O	      4.27292      4.30610      1.99081        -0.027183      0.018554     -0.000096
O	      4.04110      2.01060      4.37408         0.022795     -0.019787      0.057615
O	      6.18660      4.27423      4.46540         0.080541      0.000429      0.060241
O	      6.22861      2.12888      6.46734        -0.033925      0.015442      0.067482
O	      8.36725      4.23952      6.67854        -0.004081      0.023748      0.042490
O	      2.13417      4.06970      4.36746        -0.044755     -0.057727     -0.227705
O	      4.29501      6.35163      4.38985         0.075720     -0.015345     -0.024302
O	      4.10815      4.30594      6.73624         0.140043     -0.031877      0.110231
O	      6.18089      6.33863      6.40656         0.021436     -0.077797     -0.008200
O	      6.14128      4.35165      8.70119        -0.076242      0.031594     -0.034237
O	      8.24183      6.67983      8.82825        -0.005805      0.078718     -0.052439
O	      1.99886      6.48458      6.53279         0.074110      0.035458     -0.000124
O	      4.24755      8.67911      6.58719        -0.109069     -0.072744     -0.017095
O	      4.05219      6.26646      8.74131         0.080745     -0.038300     -0.028823
O	      6.26051      8.65582      8.84045         0.005246      0.058542      0.156614
O	      6.19398      6.43988     11.12116        -0.064434      0.042432      0.005021
O	      8.28633      8.64008     10.81807         0.109646      0.006985      0.016553
