# total energy = -237.77261517 eV
 
CRYSTAL
PRIMVEC
0.015759 6.288283 6.527840 
6.235733 0.024515 6.518290 
4.159542 4.188574 0.013695 
PRIMCOORD
36 1
Li	     10.37406      4.27470      6.59240        -0.004324      0.076744      0.027019
Li	      4.19403      8.33437      8.70144        -0.022531      0.022178      0.011204
Li	      4.18895      0.03651      4.36885        -0.030367      0.016672     -0.035547
Li	     10.25872      6.37004      8.67017         0.072413     -0.049047     -0.117284
Li	      4.17697      4.22596      4.37214        -0.010464     -0.001128      0.009584
Li	      8.40517      6.32132      6.67185         0.053392     -0.001657     -0.006485
Li	      6.21627      4.18342      6.77214        -0.004614     -0.055187      0.000681
Li	      8.32292      6.31954     10.69453         0.017430     -0.057708     -0.007695
Li	      4.19691      4.09366      8.51565        -0.046628      0.094954     -0.052180
Sc	      2.22741      2.03833      4.38447        -0.019420      0.093251      0.011726
Sc	      6.16443      4.28535     10.76576         0.158535     -0.058783      0.034735
Mn	      6.19160      2.06625      4.36884        -0.109269      0.032531      0.142464
Mn	      4.17902      6.27002      6.51879         0.036737     -0.044453     -0.073567
V	      8.19583      2.20746      6.57520        -0.069820      0.070245      0.049441
V	      6.13300      4.17851      2.18049        -0.104582     -0.023095      0.013220
V	      2.12400      4.22468      6.50525        -0.039343      0.011032     -0.079788
Co	      8.38638      4.31699      8.72748        -0.044647      0.017962      0.163163
Ni	      6.28812      6.31324      8.65441        -0.091345      0.038053     -0.044994
O	      2.08804      2.03378      2.17341         0.028843      0.274640     -0.039724
O	      4.32232      4.19183      2.21396        -0.166738      0.034236     -0.025279
O	      4.25813      2.07658      4.34178         0.067988     -0.012861     -0.016173
O	      6.29818      4.09344      4.15792        -0.010590     -0.038381     -0.002187
O	      6.32394      2.11274      6.56302         0.071925      0.117660     -0.052455
O	      8.40110      3.97961      6.63048        -0.042251      0.005154      0.041263
O	      2.05318      4.16237      4.43942        -0.011725      0.060463      0.006985
O	      4.23929      6.33699      4.50848        -0.027626     -0.006490      0.047911
O	      4.05854      4.33487      6.47965         0.111621      0.012718      0.043322
O	      6.34182      6.31966      6.49989         0.009370     -0.044298     -0.037291
O	      6.24127      4.25862      8.75510         0.179759     -0.060390     -0.018540
O	      8.31468      6.29158      8.70830         0.035316     -0.626252     -0.071654
O	      2.00798      6.37602      6.67212         0.008898      0.089410      0.002500
O	      4.17808      8.28761      6.46727        -0.044546     -0.005991      0.012915
O	      4.01034      6.28350      8.50140         0.029395     -0.014071     -0.005525
O	      6.22290      8.45319      8.53406         0.023845      0.071791      0.033644
O	      6.20274      6.38855     10.76772        -0.021277      0.003701      0.091332
O	      8.20815      8.38607     11.11531         0.016644     -0.043601     -0.056741
