# total energy = -240.98698551 eV
 
CRYSTAL
PRIMVEC
0.014172 6.438578 6.296242 
6.331190 0.005679 6.304162 
4.221158 4.298485 0.003814 
PRIMCOORD
36 1
Li	      0.03514      6.40031      6.26354         0.013489     -0.031344     -0.007081
Li	      8.41481      8.54806     12.51874        -0.050960     -0.036964     -0.020091
Li	      1.99944      0.04803      1.96521        -0.031244     -0.022507     -0.001844
Li	      4.40743      6.38562     10.57008        -0.044325     -0.006038      0.065368
Li	      6.36669      8.48164     10.53492         0.013426     -0.008020      0.019085
Li	      4.27504      6.36407      2.08787         0.037299      0.055737     -0.033841
Li	      4.23625      4.27712      4.17718        -0.017295      0.003986      0.016181
Li	     10.52113      8.64554     10.57055         0.035269     -0.067701      0.032369
Li	      2.10246      4.37547      6.32952         0.001599      0.018593     -0.014600
Sc	      2.09865      6.44130      4.26803         0.168409     -0.022112      0.178408
Sc	      4.15287      4.42376      8.44770        -0.021235      0.025188      0.135329
Mn	      2.14926      4.27448      2.06806        -0.136274     -0.068312      0.026113
Mn	      6.35885      4.30287      6.24816         0.065457     -0.049357      0.118426
V	      4.25561      8.59228      8.33387         0.058714     -0.017583      0.159296
V	      6.29069      6.38866      4.16229        -0.151295      0.108877      0.024654
V	      4.30798      2.18791      6.25866        -0.081552     -0.111046     -0.045207
Co	      4.15057      6.42913      6.32055        -0.021303      0.076851     -0.180640
Co	      6.34618      6.49121      8.50188        -0.133883     -0.083629     -0.073184
O	      2.19250      2.08005      2.21583        -0.028937      0.043843     -0.010669
O	      4.12130      4.10395      2.12128        -0.011530      0.037246     -0.010441
O	      4.10587      2.14608      4.17893         0.008319     -0.002614     -0.085611
O	      6.32904      4.53144      4.30976         0.016227     -0.044404      0.007716
O	      6.22064      2.33105      6.23873         0.137826      0.031996     -0.071426
O	      8.51319      4.40478      6.44082         0.008076      0.055507     -0.071621
O	      2.08945      4.15930      4.06089        -0.007384     -0.001327     -0.057309
O	      4.31973      6.44605      4.21586         0.056652     -0.037906     -0.106266
O	      4.17612      4.25026      6.33570         0.020066      0.167838     -0.048917
O	      6.39344      6.39576      6.21440         0.011417     -0.046755      0.096924
O	      6.40982      4.38220      8.23785         0.053264      0.011201     -0.076469
O	      8.51432      6.53451      8.32436        -0.184015      0.032641      0.086516
O	      2.14491      6.42441      6.25837        -0.119598      0.026878      0.061279
O	      4.23125      8.54962      6.55670        -0.004457     -0.073270     -0.227086
O	      4.20388      6.50887      8.40373         0.280559     -0.028828      0.202123
O	      6.24999      8.57220      8.46384         0.006867      0.072403     -0.022963
O	      6.40090      6.39080     10.48699         0.063231      0.018668      0.074529
O	      8.47741      8.52430     10.46765        -0.010878     -0.027737     -0.139048
