# total energy = -236.09571746 eV
 
CRYSTAL
PRIMVEC
0.034416 6.408943 6.448495 
6.132836 0.037543 6.443735 
4.115966 4.296243 -0.001289 
PRIMCOORD
36 1
Li	      4.17662     10.64612      6.41612        -0.013101     -0.030026      0.007443
Li	      4.23616      6.45611     10.78159         0.010965      0.013249     -0.034958
Li	      6.20329      8.53633     10.76498         0.002389      0.051691     -0.020287
Li	      4.11200      6.45260      2.19919         0.009902     -0.025804      0.011634
Li	      6.09039      6.46462      4.44620        -0.003001     -0.002856      0.018011
Li	      6.13280      4.39625      6.49021         0.044007     -0.022405      0.020929
Li	      4.12982      8.55204      4.35131        -0.008176      0.006648     -0.006496
Li	      6.15689      8.49775      6.38694        -0.010011      0.020018      0.044515
Li	      6.15237      6.35475      8.53761        -0.013087      0.014635     -0.005134
Sc	      8.13216      4.28542      8.61677         0.091717     -0.028528     -0.053770
Sc	      4.06239      2.19217      6.35267         0.054334     -0.000284      0.051403
Mn	      4.23899      8.52682      8.63596        -0.013387      0.020736     -0.029003
Mn	      4.17777      4.32932      8.60794        -0.053013     -0.033363      0.097544
V	      8.13251      2.22973      6.36715         0.013203     -0.012458     -0.015107
V	      6.12389      4.33771      2.25359         0.034899      0.025778     -0.116283
V	      8.13020      6.44272     10.75722         0.000384      0.006050     -0.000873
Cu	      4.09461      4.30359      4.34304         0.053865     -0.074658      0.041692
Ni	      4.17573      6.39304      6.43464        -0.033108      0.045461      0.036647
O	      2.00986      2.09655      2.00225        -0.017899      0.024051     -0.011120
O	      4.18721      4.23816      1.98659        -0.076821      0.067241     -0.070935
O	      4.14556      2.24925      4.32442        -0.034833      0.036997      0.022021
O	      6.09772      4.41732      4.02129         0.228015      0.022752      0.188835
O	      6.29137      2.21712      6.38986        -0.088265      0.005872     -0.041377
O	      8.20203      4.28828      6.46156         0.001964      0.017669     -0.047290
O	      2.10660      4.37058      4.26670        -0.216547     -0.093170      0.100102
O	      3.97093      6.30964      4.36885         0.012382      0.067082     -0.104964
O	      4.15793      4.26935      6.59127        -0.031034     -0.022637      0.076149
O	      6.18575      6.46203      6.44248         0.131213     -0.014944      0.037773
O	      6.11397      4.29348      8.66607         0.116165     -0.017834     -0.027742
O	      8.22052      6.40776      8.68479        -0.008981     -0.152494     -0.031606
O	      2.08434      6.54688      6.41268        -0.062854      0.006445     -0.049347
O	      3.93378      8.51151      6.44354         0.043006      0.071675     -0.103985
O	      4.04313      6.45349      8.58108         0.040173      0.022220      0.047450
O	      6.31713      8.79431      8.55262        -0.063019      0.004358      0.050446
O	      6.35024      6.43081     10.75812        -0.169110      0.011742     -0.015944
O	      8.22963      8.46881     10.78622         0.027662     -0.030911     -0.066375
