# total energy = -234.38140208 eV
 
CRYSTAL
PRIMVEC
0.022207 6.512448 6.360360 
6.416439 0.065882 6.317800 
4.291690 4.327499 0.028926 
PRIMCOORD
36 1
Li	     10.68847      4.41529      6.38479        -0.067452     -0.047846     -0.011370
Li	      2.15076      6.52524      8.42506        -0.001419      0.004640      0.049956
Li	      6.35704      2.51439      8.47136         0.002139     -0.055557      0.085030
Li	      8.32999      4.46424      8.44360         0.124511      0.064191     -0.054890
Li	      2.08610      2.27794      4.19694         0.006306      0.032562      0.002131
Li	      6.44369      4.35478      6.59540         0.032494      0.014714     -0.161027
Li	      6.54509      4.31737     10.31232         0.061872      0.021362      0.127869
Li	      4.57629      4.22444      8.38617        -0.021786     -0.070595     -0.066389
Li	      6.56288      6.33556      8.44867         0.089373      0.015897     -0.003074
Sc	      4.28863      4.39670      4.26731         0.198940     -0.016417      0.104976
Sc	      4.45803      6.53192      6.43086         0.048705      0.007834     -0.053393
Mn	      4.31671      6.49085     10.50917        -0.037537      0.020908      0.029649
Mn	      8.56330      6.57541     10.49350        -0.121894     -0.095319     -0.120462
V	      2.05091      2.16823      0.11914         0.059790      0.012805     -0.073298
V	      4.23944      2.27931      2.07115        -0.104694     -0.078780      0.199619
V	      6.43767      8.68507     10.54703        -0.005473      0.061849      0.040009
Cu	      8.53520      6.54993      6.57312        -0.048551      0.024129     -0.153402
Cu	      6.51276      8.69408      6.45417         0.094740     -0.098530     -0.075047
O	      6.43906      4.41932      8.46849         0.018868     -0.056303      0.054037
O	      2.21322      2.15607      2.02789        -0.025733      0.006767      0.044916
O	      4.23592      4.09578      2.17262        -0.034455      0.007746     -0.052793
O	      4.36528      2.20746      4.16867         0.080381     -0.019156     -0.045631
O	      6.41338      4.07258      4.16644         0.084972      0.829682     -0.048814
O	      6.46162      2.15427      6.19773        -0.126130     -0.032391     -0.591926
O	      8.55404      4.06424      6.20266        -0.024454     -0.170337     -0.040378
O	      2.17211      4.53499      4.40283        -0.040000     -0.029159     -0.070680
O	      4.27797      6.46099      4.29997        -0.021154      0.048792      0.008370
O	      4.38931      4.49749      6.32974         0.130843      0.112807      0.065371
O	      6.50997      6.64388      6.32376        -0.101112     -0.006430     -0.024884
O	      8.60862      6.52742      8.50189         0.040746      0.052891      0.223937
O	      2.20461      6.72092      6.32865        -0.032470      0.170561      0.050385
O	      4.12761      8.66711      6.49405        -0.187148      0.002630      0.024856
O	      4.25773      6.79653      8.49063         0.023944      0.061346      0.014216
O	      6.24702      8.73820      8.46310         0.218665      0.004650      0.704934
O	      6.46696      6.78582     10.54473         0.042227     -0.829494     -0.037279
O	      8.45400      8.60159     10.60617        -0.358051      0.027550     -0.145522
