# total energy = -241.61266524 eV
 
CRYSTAL
PRIMVEC
0.001137 6.435226 6.301237 
6.362631 0.029100 6.273200 
4.255040 4.284810 0.006020 
PRIMCOORD
36 1
Li	      4.32117     10.60868      6.26965        -0.000569     -0.127182     -0.079330
Li	      2.13908      2.15123      0.00681         0.047108      0.029322      0.003384
Li	      8.50654      4.30009      4.23305         0.062691      0.018827      0.012660
Li	     10.58527      6.50452      8.44051        -0.010997      0.054054      0.053135
Li	      2.16797      2.14329      4.19103         0.025780     -0.051006      0.064995
Li	      4.16924      4.34743      4.17553        -0.001899      0.010621      0.003086
Li	      8.45717      6.47085      6.27858        -0.093347     -0.011205      0.011199
Li	      6.39103      4.36128     10.46255         0.015623      0.035704     -0.000945
Li	      2.08724      4.34510      6.18186        -0.007328      0.003441     -0.035277
Sc	      6.39523      2.10567      4.27225        -0.084351     -0.266043     -0.114536
Sc	      4.20250      6.44047      6.14747         0.289507     -0.012089      0.065072
Mn	      6.26595      4.36949      2.07863        -0.024642     -0.011995      0.027331
Mn	      8.47594      4.37654      8.42654         0.109801     -0.117620     -0.126474
V	      4.17365      2.18470      2.09946         0.043087      0.036996      0.068040
V	      6.44445      4.26824      6.25669        -0.234869      0.389402      0.050104
V	      8.53975      8.57049      8.41587        -0.134475      0.023645     -0.062391
Fe	      6.37750      6.45389      8.38931        -0.107919      0.111400     -0.112667
Co	      2.14823      6.43096      4.20067        -0.221705     -0.011249      0.014713
O	      2.26344      2.16365      2.13178        -0.147291      0.056118      0.012279
O	      4.16517      4.12236      2.07121        -0.020677      0.043854     -0.006531
O	      4.31531      2.07749      3.97102        -0.050515     -0.001190     -0.004293
O	      6.39522      4.23558      4.31369         0.051791     -0.065711     -0.129873
O	      6.32717      2.36331      6.29078         0.067167      0.179515      0.103446
O	      8.33931      4.35891      6.42612         0.379838     -0.018972      0.110738
O	      2.12288      4.47003      4.07983         0.012415      0.041123     -0.024771
O	      4.11249      6.43801      4.17107         0.044980      0.011036     -0.073649
O	      4.38190      4.32399      6.38805        -0.230701     -0.013974      0.091580
O	      6.35125      6.28942      6.28736        -0.023665     -0.379733     -0.555110
O	      6.36828      4.29438      8.29674         0.124010      0.312024      0.114910
O	      8.51330      6.55093      8.49331        -0.037341      0.049039      0.020300
O	      2.13989      6.42490      6.17857        -0.099870      0.014345     -0.031587
O	      4.29697      8.50378      6.53080        -0.002067     -0.005403     -0.037021
O	      4.20964      6.40807      8.38006        -0.025451     -0.158411      0.044922
O	      6.37770      8.63188      8.41570        -0.024978     -0.298875     -0.039376
O	      6.49540      6.46444     10.46977         0.210947      0.086088      0.505681
O	      8.49560      8.48716     10.43248         0.099917      0.044102      0.056258
