# total energy = -242.32023818 eV
 
CRYSTAL
PRIMVEC
0.038269 6.466084 6.448572 
6.223292 0.031023 6.456292 
4.154610 4.321820 0.014972 
PRIMCOORD
36 1
Li	      8.37902      8.59354     12.75866        -0.001364     -0.027462     -0.133552
Li	      6.28681     10.77287      8.61888         0.038215      0.008578      0.020908
Li	      4.31775      6.33785     10.70331        -0.056927     -0.008876      0.000991
Li	      6.37277      8.50827     10.67568        -0.055040      0.007427      0.010294
Li	      2.07971      4.35177      2.27006        -0.048789      0.000004      0.032061
Li	      6.16873      4.48556     10.66783         0.063257      0.032166     -0.040348
Li	      8.23568      6.57676     10.72709         0.050308      0.007020      0.012714
Li	      2.05562      4.39649      6.45461         0.015264      0.010494     -0.021050
Li	      6.24654      6.55080      8.87401         0.009894      0.037405      0.011793
Sc	      8.28144      6.47453      6.54047        -0.024570      0.080301     -0.017765
Sc	      6.33379      4.26182      6.46798        -0.061213     -0.020072      0.040774
Mn	      4.12432      4.33573      4.29269        -0.041065     -0.073829      0.030578
Mn	      8.24785      8.69396      8.73087        -0.013137     -0.020384     -0.069760
V	      4.26327      8.67808      8.58748        -0.021013     -0.065663      0.104607
V	      4.20155      6.41332      2.17595         0.012016      0.074912     -0.016898
V	      4.07201      6.53304      6.49920         0.006006      0.016029      0.018148
Fe	      0.13724      6.39765      6.28656        -0.029676      0.006242      0.112472
Fe	      2.06716      2.21926      4.26600         0.033881     -0.061102      0.089893
O	      2.08234      2.17848      2.29027        -0.035812     -0.008341     -0.106110
O	      4.19208      4.37817      2.06797        -0.029397     -0.052708     -0.047187
O	      4.12038      2.31731      4.26459         0.038090      0.056226      0.059032
O	      6.07843      4.43572      4.39169         0.012276     -0.011205     -0.050471
O	      6.23400      2.15931      6.50673         0.016585      0.024531     -0.016549
O	      8.34363      4.42675      6.42792        -0.003038     -0.001312     -0.007011
O	      2.20286      4.19406      4.33460         0.017979      0.123118     -0.011379
O	      4.18729      6.34673      4.34540        -0.076887     -0.020200     -0.006984
O	      4.15835      4.34249      6.61827         0.014403     -0.038314      0.005133
O	      6.19888      6.41290      6.35600         0.029801     -0.057756      0.031098
O	      6.15724      4.18021      8.57479         0.019826     -0.006992      0.013317
O	      8.39665      6.45743      8.56571        -0.036208     -0.032348      0.014458
O	      2.12366      6.50748      6.40760         0.034997     -0.007529      0.017611
O	      4.15897      8.67226      6.60173         0.004327     -0.009223     -0.147909
O	      4.20333      6.59168      8.44817        -0.003037      0.026077      0.121883
O	      6.23483      8.62523      8.64603         0.112783      0.035530     -0.001340
O	      6.26930      6.46755     10.87657        -0.022715      0.030294     -0.174447
O	      8.31505      8.70296     10.57387         0.029977     -0.053040      0.120994
