# total energy = -98.83631273 eV
 
CRYSTAL
PRIMVEC
-0.000006 2.065895 2.065908 
17.685986 0.000062 0.000367 
-0.000081 2.065898 -2.065911 
PRIMCOORD
16 1
Li	      0.62560      2.06728     -2.06149        -0.026866     -0.000328     -0.000279
Li	      2.56329      2.06649      0.00405        -0.061152     -0.000211     -0.000434
Li	      8.48382      2.06581     -2.06339         0.060818      0.000473     -0.000419
Li	     10.42335      2.06595      0.00258         0.019907      0.000079      0.000648
Ti	     12.97240      2.06686     -2.06294        -0.967299      0.001243      0.005645
Ti	     15.76420      2.06698      0.00301         0.954728      0.000681      0.004423
Ni	      4.41270      2.06613     -2.06243        -0.043037      0.000219     -0.000826
Ni	      6.63530      2.06592      0.00290         0.049903      0.000173      0.000403
O	     13.37788      2.06705      0.00361         0.010769     -0.000772     -0.002248
O	     15.35822      2.06707     -2.06243         0.005327     -0.000961     -0.003607
O	      8.60895      2.06584      0.00255         0.022644      0.000278      0.000709
O	     11.22424      2.06690     -2.06219         0.904794     -0.000209      0.000190
O	      4.58590      2.06610      0.00331        -0.056666     -0.000102     -0.001425
O	      6.46294      2.06593     -2.06293         0.047698      0.000152      0.001405
O	     17.51212      2.06709      0.00388        -0.887487     -0.000096     -0.002059
O	      2.43938      2.06638     -2.06219        -0.034081     -0.000621     -0.002126
