# total energy = -244.04432556 eV
 
CRYSTAL
PRIMVEC
0.038296 6.236479 6.511544 
6.341158 0.040291 6.509298 
4.251891 4.180417 0.002759 
PRIMCOORD
36 1
Li	      4.16462      4.11794      0.11545        -0.035792     -0.009212      0.033792
Li	      4.20243      2.20043      2.25019        -0.036442     -0.028510      0.001761
Li	      2.17894      4.15984      2.26993        -0.019963     -0.000251      0.001571
Li	      2.25614      2.29587      4.36907        -0.004835     -0.000740     -0.009180
Li	      4.16284      4.08589      4.33891         0.068615      0.052883     -0.007646
Li	      4.25169      2.09186      6.42572        -0.000644     -0.014505      0.007049
Li	      0.18134      4.16433      4.42151        -0.032779      0.025195     -0.006041
Li	      2.16309      4.19403      6.37178         0.021783     -0.021384      0.024477
Li	      4.21356      4.20253      8.59528         0.024925     -0.003685     -0.027681
Sc	      4.24776      6.24835      2.26733         0.087176      0.025727      0.011660
Sc	      6.37694      6.33871      8.62557        -0.007208     -0.057568      0.025678
Mn	      6.40939     10.37452      8.69039        -0.040782      0.127302     -0.126817
Mn	      6.24931      2.07764      4.37939         0.006074      0.005756      0.012771
Mn	      2.11425      6.18283      4.33315         0.062155      0.018432      0.029408
V	      2.12295      2.07269      0.03277         0.021439      0.034899     -0.055921
V	      6.39668      4.22271      6.50052        -0.041864     -0.040273      0.058810
V	      4.30546      6.26996      6.39303         0.093233      0.062931      0.007159
Co	      8.45231      4.20869      4.35531         0.002966     -0.054379      0.110604
O	      2.10925      1.94400      2.13063         0.092812      0.059582      0.166071
O	      4.42721      4.19774      2.16875        -0.026867     -0.067960     -0.010191
O	      4.32982      2.06205      4.40544        -0.038232     -0.006951     -0.041377
O	      6.38633      4.04582      4.48365         0.021161     -0.008119     -0.077972
O	      6.42996      2.12347      6.62742        -0.176047     -0.034983     -0.066969
O	      8.41714      4.10216      6.51286         0.076113      0.009827     -0.043945
O	      2.14814      4.31786      4.31572         0.015557     -0.011773      0.049398
O	      4.28272      6.31722      4.39909         0.040799      0.041820      0.028242
O	      4.36667      4.39324      6.47386        -0.088140     -0.058528      0.017033
O	      6.31057      6.31934      6.51119         0.028784      0.010532     -0.023479
O	      6.37151      4.23398      8.52009        -0.045306      0.019440      0.092835
O	      8.47925      6.30916      8.75441        -0.017869      0.020909      0.004773
O	      2.27022      6.26528      6.41229        -0.017588     -0.078184     -0.059101
O	      4.16395      8.16562      6.47179         0.029353      0.003406      0.003179
O	      4.19155      6.25228      8.54860         0.015049     -0.045010     -0.000604
O	      6.39917      8.42081      8.66450         0.008247      0.032511     -0.021896
O	      6.30555      6.31624     10.76720        -0.065587     -0.008552      0.015370
O	      8.29951      8.25023     10.96963        -0.020293     -0.000586     -0.122822
