# total energy = -228.69003550 eV
 
CRYSTAL
PRIMVEC
0.003826 6.303563 6.429443 
6.224046 0.029027 6.404071 
4.171981 4.208444 -0.003229 
PRIMCOORD
36 1
Li	      4.13680     10.40617      6.42099        -0.016682      0.048319     -0.006234
Li	      2.19556      8.47344      6.38691        -0.062599      0.051021     -0.013614
Li	      2.13359      6.24709      8.41535         0.034573      0.000271     -0.015638
Li	      8.39579     10.38098     10.81345         0.004681      0.037729      0.040214
Li	      8.33012      6.22633      6.46641         0.036934      0.021544     -0.006023
Li	      6.33469      4.21336      6.40671        -0.009133     -0.030773     -0.040076
Li	     10.28114      8.53823     10.72542        -0.018110      0.002970     -0.064244
Li	      4.06990      6.43012      6.57475         0.000490     -0.012349      0.057028
Li	      8.27529      8.48680      8.63065        -0.027679      0.079088      0.070029
Sc	      6.29875      6.30794      4.38120         0.003651     -0.051265      0.061700
Sc	      2.04777      6.37161      4.40332        -0.211461     -0.013317     -0.008285
V	      6.22564      2.17449      8.38550         0.020959      0.001582     -0.190998
V	      4.23050      4.20361      4.36625         0.076334      0.002080      0.272471
V	      6.14185      6.33391      8.52219        -0.155210     -0.212205     -0.215541
Fe	      8.31955      4.21860      8.34758         0.027765      0.026346      0.015030
Co	      4.18122      8.40129      8.52352         0.112951     -0.064074     -0.150281
Cu	      6.28586      8.45266     10.71228         0.014022     -0.044439      0.065909
Cu	      6.17147      8.46150      6.44983         0.097598     -0.058924      0.064179
O	      2.06029      2.15014      2.19107         0.052943     -0.015598      0.028142
O	      4.13671      4.23866      2.26647         0.016227     -0.020326      0.043755
O	      4.23227      2.21182      4.13285        -0.069474      0.054641     -0.053391
O	      6.16497      4.25402      4.31212         0.007617      0.084666      0.056703
O	      6.21589      2.08368      6.65226         0.039676     -0.024205      0.084589
O	      8.32967      4.24609      6.47192        -0.004358     -0.020643      0.010631
O	      2.18761      4.18961      4.10431         0.001634     -0.003434     -0.110373
O	      4.19866      6.23013      4.09832         0.005447     -0.007368     -0.031824
O	      4.10033      4.20939      6.14513         0.000860      0.018898     -0.291292
O	      6.25677      6.40846      6.46164        -0.025952      0.001934     -0.162931
O	      6.26054      4.14223      8.53661        -0.007616     -0.031288     -0.009577
O	      8.35123      6.30407      8.55327         0.012576     -0.013649      0.035016
O	      2.07992      6.21330      6.39023        -0.043109      0.036236     -0.006425
O	      4.19003      8.42289      6.62291        -0.040224     -0.033121      0.120528
O	      4.22593      6.45968      8.54743        -0.052934      0.055556     -0.006200
O	      6.09508      8.36604      8.58618        -0.073272      0.335428     -0.068062
O	      6.25307      6.29479     10.50993         0.089368     -0.178979      0.400788
O	      8.24432      8.41733     10.71045         0.161505     -0.022352      0.024301
