# total energy = -230.78106928 eV
 
CRYSTAL
PRIMVEC
-0.017101 6.332413 6.320663 
6.206937 -0.010512 6.314058 
4.128123 4.207563 0.002536 
PRIMCOORD
36 1
Li	      4.17951      8.39438      8.46367        -0.038671      0.025254     -0.005282
Li	      4.12788      0.08291      4.19396        -0.026292      0.044438      0.010556
Li	      6.07048      2.15543      4.17929        -0.058320      0.064164      0.030440
Li	      4.12670      6.33149      2.14949         0.032607      0.001737     -0.007538
Li	      8.20664      4.25225      8.43271        -0.021553     -0.021459     -0.017714
Li	      4.16775      4.16313      4.27436         0.006057     -0.010338      0.045128
Li	      6.19209      4.22526      6.26051         0.011960      0.006861     -0.046987
Li	      6.12958      8.42424      6.33469         0.006180     -0.035484      0.020080
Li	      4.13874      6.36727      6.30457         0.018286      0.052183      0.010729
Sc	      8.27988      2.18359      6.33724        -0.065394      0.026412      0.068807
Sc	      4.15792      4.23642      8.39342         0.036107     -0.009426     -0.015093
V	      6.11939      4.18481      2.14335        -0.126507      0.058663     -0.002356
V	      2.06250      2.12645      4.20999        -0.034049     -0.001284     -0.050013
V	      4.14805      2.10217      6.29376         0.009192     -0.031302     -0.023094
Fe	      2.10314      6.21017      4.24002         0.057109      0.014293     -0.034672
Co	      0.00978      4.21264      4.21430         0.013120     -0.054625     -0.071015
Ni	     10.30786     10.50569     12.60711        -0.022729      0.034504      0.027714
Ni	      6.14280      6.34236      8.43781        -0.034866      0.031468     -0.054815
O	      2.07922      2.00254      2.10657         0.018171     -0.025295     -0.043991
O	      4.31154      4.17964      2.04373         0.068209     -0.015789      0.091347
O	      4.04248      2.12798      4.33732         0.027119     -0.007740     -0.007081
O	      6.17177      4.33787      4.07582         0.019867     -0.060748      0.030597
O	      6.07706      2.05621      6.28389         0.071228      0.124052     -0.018079
O	      8.26939      4.24675      6.31189        -0.158107      0.030435     -0.002305
O	      1.97745      4.21544      4.21196        -0.047771     -0.027930      0.017959
O	      4.11955      6.43021      4.22161         0.047464      0.041124      0.013596
O	      4.18793      4.04737      6.34579         0.020907     -0.008772      0.013660
O	      6.35868      6.27893      6.34029        -0.048109      0.001296     -0.052989
O	      6.20197      4.27705      8.57661        -0.018392     -0.141451      0.073344
O	      8.24629      6.31443      8.42237         0.091992      0.015991     -0.009644
O	      2.04319      6.36257      6.30066         0.144592     -0.021204      0.041043
O	      4.10052      8.46534      6.17181         0.026142     -0.145753     -0.035158
O	      3.99728      6.30558      8.38600        -0.054972      0.022094      0.030099
O	      6.18920      8.48956      8.48853         0.016084      0.060001     -0.022876
O	      6.27600      6.16091     10.50858        -0.046017     -0.062026      0.009275
O	      8.35606      8.29509     10.54497         0.059359      0.025657     -0.013670
