# total energy = -232.06338139 eV
 
CRYSTAL
PRIMVEC
-0.015611 6.412231 6.319435 
6.331625 -0.001091 6.305003 
4.215528 4.259714 0.004855 
PRIMCOORD
36 1
Li	      2.22285      8.46348      6.12290        -0.005798     -0.024699     -0.031702
Li	      4.27665      8.39876      8.36895        -0.065165      0.023583      0.023493
Li	      4.29295      6.30103     10.41739         0.004144      0.007096      0.001940
Li	      6.44549      8.41919     10.44386         0.029857     -0.038516     -0.005615
Li	      0.00713      2.13986      2.12054         0.096927      0.012835      0.000240
Li	      8.35635      4.30906      8.44030        -0.005364     -0.089214      0.038866
Li	     10.44262      8.55585     10.57546         0.053016      0.024064     -0.018021
Li	      4.12471      6.60899      6.36025        -0.037878      0.007980      0.006543
Li	      6.16597      6.48301      8.59336        -0.017737      0.055163      0.024673
Sc	      4.20065     10.58336      6.26782        -0.001726      0.062001     -0.021304
Sc	      4.19266      4.28784      4.12493        -0.170463     -0.033970     -0.025891
V	      2.04824      2.17223      4.16037         0.198805      0.095884     -0.935377
V	      6.36574      4.21576      6.40567        -0.055260     -0.176241      0.113638
V	      8.42917      6.37629      6.42321         0.170385      0.059001     -0.190330
Fe	      2.21479      6.33630      8.34241        -0.197701      0.266582      0.126529
Co	      8.37589      6.54227     10.47393         0.060048     -0.172820      0.086545
Co	      6.20495      8.51433      6.38307         0.076581      0.015530     -0.016019
Ni	      4.20132      4.35633      8.48239         0.046151     -0.168464     -0.118906
O	      2.14944      2.05790      2.33935        -0.027454      0.002429      0.743806
O	      4.34510      4.30595      2.11665        -0.026775      0.003526     -0.067010
O	      4.06901      2.19173      4.40605         0.115886     -0.010523      0.140561
O	      6.28740      4.38189      4.34281         0.077323     -0.052693      0.108845
O	      6.19416      2.23287      6.26507         0.045409      0.011939     -0.021562
O	      8.35760      4.37198      6.34694         0.044568     -0.063319     -0.020999
O	      2.11680      4.17158      4.24636        -0.145523      0.230075      0.053998
O	      4.30874      6.36519      4.23305        -0.401756      0.130551      0.092120
O	      4.29667      4.13837      6.30520        -0.031928      0.061670     -0.037736
O	      6.40980      6.27743      6.20632        -0.182331      0.088462     -0.000628
O	      6.30394      4.26898      8.18348         0.075143      0.002850     -0.144946
O	      8.42075      6.42777      8.22927        -0.034177     -0.046413      0.055177
O	      2.06709      6.43811      6.37188         0.101955      0.001340     -0.073872
O	      4.21117      8.58633      6.34633        -0.066202      0.000355     -0.028052
O	      4.12216      6.39137      8.42134         0.243126      0.085029     -0.002336
O	      6.35873      8.61693      8.40542        -0.126461     -0.038508     -0.035286
O	      6.36356      6.40540     10.54163         0.220997      0.083555      0.016045
O	      8.46287      8.48851     10.46918        -0.060621     -0.416122      0.162574
