# total energy = -234.13320919 eV
 
CRYSTAL
PRIMVEC
-0.017178 6.358474 6.329620 
6.414300 -0.013046 6.325990 
4.271237 4.231190 -0.003918 
PRIMCOORD
36 1
Li	      8.50204      2.19257      6.35698        -0.005535      0.015792      0.177793
Li	      0.03683      2.15561      2.15068         0.054126      0.132813      0.002107
Li	      8.45198      4.16769      8.39745        -0.111670     -0.166891     -0.061255
Li	      2.10251      2.13817      4.19591         0.025169      0.003207     -0.050402
Li	      4.24516      4.26865      4.18555        -0.009688      0.000558     -0.164329
Li	      6.46319      4.18760      6.38610         0.056230     -0.012907      0.242031
Li	      6.39664      4.21746     10.51380         0.021166      0.001510     -0.205521
Li	      6.40153      8.44012      6.33352        -0.045987      0.000840      0.064004
Li	      6.44949      6.29015      8.44949         0.015915     -0.188485      0.012232
Sc	      8.47197      6.35414      6.35772        -0.030576     -0.187230     -0.066614
Sc	      4.37221      6.33037      6.26835         0.119151      0.195709      0.086612
V	      6.35941      4.26240      2.14385        -0.347858      0.465360     -0.170709
V	      4.26318      2.13996      2.09649        -0.200628     -0.058307     -0.046867
V	      2.15166      6.21312      4.17916        -0.084249     -0.258087      0.110391
Fe	      6.44583      2.08660      4.27572        -0.248964     -0.066894     -0.082222
Co	     10.65374      4.20587      6.32134         0.022988     -0.092222      0.093778
Co	      8.57260     10.51932     10.59497         0.065430      0.107606      0.102293
Co	      4.47912      4.20505      8.43820        -0.697201     -0.359103     -0.098393
O	      2.23264      1.98876      2.14428         0.017690     -0.324210     -0.028673
O	      4.38799      4.18794      2.10283         0.469084      0.283430      0.075054
O	      4.34272      2.11194      4.15748         0.154078     -0.046934      0.196171
O	      6.44970      4.16103      4.02852         0.024473     -0.149947     -0.138959
O	      6.35627      2.11550      6.22831        -0.074852     -0.050563     -0.189435
O	      8.56777      4.24241      6.30571        -0.023433      0.145071     -0.162518
O	      2.07661      4.44955      4.17565         0.034557      0.431528      0.027738
O	      4.10410      6.37368      4.24058        -0.257703     -0.099832      0.112246
O	      4.25052      4.23245      6.40800         0.232720     -0.021373      0.646136
O	      6.40030      6.35991      6.26460         0.092767      0.075353     -0.073250
O	      6.31240      4.22752      8.43924        -0.565835      0.078688      0.095812
O	      8.52626      6.39344      8.50027         0.170790      0.796436     -0.014196
O	      2.13214      6.36285      6.35690         0.143932     -0.017360     -0.000402
O	      4.26843      8.44673      6.46757         0.025217      0.047537     -0.064810
O	      4.15672      6.35619      8.44600         0.034566     -0.695331      0.035177
O	      6.31572      8.61024      8.48881         0.321417     -0.044241      0.099538
O	      6.46252      6.41928     10.53019         0.279121      0.048137      0.018091
O	      8.45283      8.35045     10.46504         0.323592      0.010339     -0.578650
