# total energy = -231.69987542 eV
 
CRYSTAL
PRIMVEC
0.064346 6.177071 6.511731 
6.384940 0.037275 6.538512 
4.272045 4.150632 0.010245 
PRIMCOORD
36 1
Li	     10.42955      4.19350      6.48694         0.084620     -0.015791     -0.025591
Li	      8.48246      2.32346      6.53869        -0.056096     -0.097627      0.030830
Li	      6.36658      4.21558      2.36636        -0.023595      0.043788      0.007490
Li	      8.45544      4.17980      4.64139         0.057291     -0.020226     -0.005965
Li	      8.62728      4.11042      8.40321         0.033036      0.018963     -0.038234
Li	      4.37291      4.11646      4.25826        -0.083016      0.066818     -0.059581
Li	      8.55904      6.05135      6.42461        -0.006448      0.067652     -0.008310
Li	      6.69372      4.14215      6.40599        -0.007625      0.015112      0.046864
Li	      6.38985      4.18809     10.85946         0.028271     -0.047307     -0.021068
Sc	      4.32962      6.18800      6.39165         0.067064     -0.017322     -0.181642
Sc	      6.49529      6.12852      8.74882         0.023720     -0.048963      0.061668
V	      4.23124      2.19274      2.25291        -0.016434     -0.010494      0.117281
V	      0.11422      1.99642      2.00818         0.217999      0.081302      0.237134
V	      2.17762      4.14277      6.46993         0.038518      0.007287     -0.113913
Fe	      8.53917      6.22569     10.90052         0.085324     -0.018221     -0.091999
Fe	      8.55258      8.33800      8.81034        -0.095436     -0.000579      0.115942
Co	      6.35380      2.21148      4.43845         0.085374      0.205311      0.057505
Cu	      6.48407      6.13289      4.34075         0.064738      0.121359     -0.121031
O	      8.55249      4.18455      6.53097         0.009322     -0.016456      0.010977
O	      2.05591      2.06923      2.16861        -0.110826      0.026319     -0.074996
O	      4.28068      4.18282      2.20439         0.022628     -0.085730     -0.076963
O	      4.30452      2.07436      4.18367         0.618933      0.021840      0.009373
O	      6.37224      4.17708      4.42261        -0.250042     -0.902776     -0.045790
O	      6.36745      2.10767      6.79841        -0.130474     -0.082911     -0.139129
O	      2.14814      4.08295      4.57528        -0.065135      0.231742      0.336271
O	      4.20442      6.21035      4.29068        -0.217827      0.014106      0.117917
O	      4.05915      4.13759      6.69202        -0.115094     -0.028382      0.026193
O	      6.39917      6.30007      6.61721         0.059649      0.098267      0.113628
O	      6.29272      4.08455      8.74359         0.090086      0.063915     -0.001189
O	      8.62451      6.27017      8.82782        -0.027079     -0.053464     -0.064907
O	      2.25198      6.11438      6.36127        -0.000912     -0.143539      0.147918
O	      4.51719      8.25687      6.67769         0.099237      0.028123     -0.037533
O	      4.37157      6.21869      8.58398        -0.001400      0.052782     -0.083229
O	      6.45982      8.28873      8.62111        -0.028138      0.013676     -0.265656
O	      6.55713      6.24912     10.80766        -0.181454      0.246709     -0.011262
O	      8.49537      8.25243     10.79257        -0.268779      0.164719      0.031000
