# total energy = -103.18547816 eV
 
CRYSTAL
PRIMVEC
4.013674 -0.000377 0.000125 
2.007545 4.503114 -6.296979 
2.006937 4.399722 2.031415 
PRIMCOORD
16 1
Li	      4.01361      0.22681     -0.13629         0.000958     -0.000107      0.006404
Li	      2.00682      2.48475     -0.16395         0.001496      0.005409     -0.009653
Li	      2.00718      4.17830     -1.99128        -0.001564     -0.003683      0.012096
Li	      4.01410      6.43543     -2.01908         0.001940     -0.001310     -0.008990
Ti	      4.01505      4.39454     -4.10915        -0.000023     -0.157374      0.219267
Ti	      6.02405      6.77077     -4.34346        -0.005543      0.158157     -0.215846
Ni	      4.01372      4.50038     -0.05676        -0.001661     -0.076168     -0.025979
Ni	      4.01359      2.16218     -2.09828         0.001864      0.076759      0.023744
O	      4.01383      4.36239     -2.24666         0.002805      0.087325     -0.330862
O	      6.02092      6.89885     -2.25501         0.000259      0.179658     -0.082987
O	      4.01334      2.30029      0.09121         0.001668     -0.091181      0.330360
O	      6.02047      4.51576     -0.05114        -0.001339     -0.137448      0.000725
O	      2.00709      2.14672     -2.10417        -0.009094      0.137515      0.000475
O	      6.02044      4.69361     -4.21581         0.007944      0.014684     -0.003231
O	      4.01386      6.47168     -4.23674         0.002234     -0.016616      0.002565
O	      6.02127      8.66642     -4.16603        -0.001944     -0.175618      0.081913
