# total energy = -233.39827599 eV
 
CRYSTAL
PRIMVEC
0.036355 6.410963 6.225085 
6.452387 -0.002136 6.264110 
4.288931 4.286600 0.010226 
PRIMCOORD
36 1
Li	      0.07662      6.35552      6.18955         0.036742     -0.008457     -0.106695
Li	      2.16768      6.41522      8.25924        -0.030893     -0.021084      0.027916
Li	      4.32466      6.38960      2.16828         0.023246     -0.034951      0.084614
Li	      6.33926      6.48238      4.19699        -0.030061     -0.006492     -0.001778
Li	      8.59640      6.34358      6.25306         0.014166     -0.013597     -0.050643
Li	      6.51069      4.31126      6.23401         0.001939      0.020150     -0.021043
Li	      0.16635      4.20579      4.20454         0.048822     -0.044275     -0.000173
Li	      2.09057      4.38567      6.13277        -0.016987      0.064632     -0.016232
Li	      4.27928      6.44408      6.18531        -0.045496     -0.011058     -0.035760
Sc	      2.22771      8.48424      6.20012         0.030807     -0.031899     -0.117557
Sc	      4.34906      8.54018      8.26329         0.010364      0.002416      0.036521
V	      6.41205      2.16961      4.27254         0.013074     -0.023524     -0.164746
V	      6.49310      6.36491      8.20721        -0.109012      0.068759      0.358104
V	      4.30383      4.36863      4.29047        -0.019766      0.094386     -0.024146
Fe	      8.59248      4.28926      8.31932         0.033455     -0.029152      0.079209
Fe	      4.36388      4.26744      8.20276         0.005567     -0.036184      0.089503
Co	      2.18693      6.37999      4.22070        -0.130562      0.154013     -0.253534
Ni	      8.56787      4.31910      4.24183         0.007337      0.025770      0.032491
O	      2.20182      2.23756      2.05971        -0.050530     -0.071972     -0.042552
O	      4.23518      4.23237      2.27147        -0.010323      0.037589     -0.047743
O	      4.41900      2.18069      4.18402         0.048665      0.029683      0.035403
O	      6.36063      4.16549      4.14554        -0.062119     -0.030962      0.025399
O	      6.47937      2.12372      6.06854        -0.040924      0.029155      0.157574
O	      8.58757      4.24734      6.31301        -0.008961      0.062797     -0.026177
O	      2.29340      4.27106      4.10760        -0.049748      0.108798      0.090290
O	      4.29087      6.26746      4.16616         0.009282     -0.057340      0.120672
O	      4.31743      4.25203      6.11668         0.031420     -0.031085     -0.003174
O	      6.45799      6.44638      6.46121         0.042457     -0.027130     -0.218266
O	      6.53545      4.41038      8.40334         0.053295     -0.016750     -0.055108
O	      8.50534      6.35271      8.37369         0.152515      0.003314      0.363395
O	      2.13677      6.45504      6.23896         0.090578     -0.096893     -0.388643
O	      4.28131      8.55142      6.23835         0.003453      0.015007      0.026631
O	      4.45207      6.42943      8.39678         0.009481      0.041624     -0.050143
O	      6.46178      8.46393      8.44767        -0.051945      0.009949     -0.032495
O	      6.44881      6.56216     10.29419         0.073958      0.008086      0.016428
O	      8.47202      8.62403     10.35243        -0.083294     -0.183324      0.112455
