# total energy = -235.28053383 eV
 
CRYSTAL
PRIMVEC
0.023430 6.186439 6.429892 
6.315328 0.014244 6.440090 
4.212565 4.133072 0.006985 
PRIMCOORD
36 1
Li	      2.13405      2.06534      0.07208        -0.025179     -0.001220     -0.002657
Li	      4.22778      8.25426      8.52965         0.009846     -0.008722      0.020049
Li	      6.31658      2.06926      8.41690        -0.009014      0.018755     -0.147023
Li	      6.28039      6.25207      4.41331        -0.034607     -0.006299      0.045604
Li	      4.17455      4.12814      4.37332         0.008590      0.002529      0.055803
Li	      8.36695      6.22797      6.42757        -0.014441      0.003065     -0.023513
Li	      4.31888      8.17855      4.38483         0.036863      0.014857      0.018464
Li	      6.29779      8.12176      6.53145        -0.005440      0.012705      0.031466
Li	      6.33030      6.22412      8.42356         0.020623      0.008293     -0.004491
Sc	      6.23304      2.11293      4.34571         0.073622      0.002857      0.016447
Sc	      2.24732      6.16079      4.33494        -0.103739     -0.011722     -0.040050
V	      2.06081      0.12299      2.12948         0.012697     -0.052151      0.009865
V	      4.22727      0.04484      4.29638         0.033541     -0.125543     -0.011920
V	      2.04729      4.02955      2.18683        -0.072378      0.101354      0.120362
Fe	      4.21564     10.18319      6.46501         0.034052      0.175894     -0.116625
Fe	      4.21411      4.09326      8.48790         0.084957      0.010256      0.141692
Co	      6.30658      4.17146      6.42622         0.014880     -0.075304     -0.048778
Co	      4.27245      6.24641      6.46867         0.055089     -0.025062     -0.048300
O	      2.06988      2.10112      2.11686        -0.000103      0.021203     -0.006513
O	      4.08102      4.14055      2.01494        -0.025543      0.012720      0.053168
O	      4.22616      1.97904      4.27850        -0.081096      0.134298     -0.001231
O	      6.35517      4.16499      4.16082        -0.096022      0.087282     -0.099816
O	      6.31547      2.05199      6.38131         0.016129     -0.046738     -0.003622
O	      8.45333      4.10933      6.38013        -0.026369      0.013027      0.007517
O	      2.16521      4.13106      4.07586        -0.002395     -0.086770     -0.081358
O	      4.21026      6.19095      4.56372         0.151196      0.004128      0.120131
O	      4.24657      4.26068      6.54149         0.026316      0.072696     -0.135982
O	      6.17977      6.18024      6.45806        -0.059914      0.013457      0.028712
O	      6.50833      4.14056      8.54736        -0.029371      0.013211      0.059326
O	      8.45693      6.21979      8.64605         0.025772     -0.073149      0.018275
O	      2.14398      6.21043      6.50742         0.013563      0.006096     -0.011915
O	      4.25953      8.24411      6.45499         0.003376     -0.276077      0.004582
O	      4.19743      6.16342      8.58451         0.061842      0.022798     -0.012783
O	      6.42776      8.38712      8.61568        -0.106463     -0.011870      0.023032
O	      6.35924      6.18726     10.85105        -0.008421      0.041241      0.055597
O	      8.44817      8.30971     10.58627         0.017542      0.007906     -0.033515
