# total energy = -230.42974484 eV
 
CRYSTAL
PRIMVEC
0.015639 6.390992 6.346954 
6.275301 0.034267 6.329456 
4.223128 4.289632 -0.017674 
PRIMCOORD
36 1
Li	      2.05392      0.05034      2.10308         0.011448      0.035596      0.004340
Li	      6.26376      2.32516      8.50119         0.002895      0.094987     -0.020837
Li	      2.05231      4.27955      2.30001         0.035953      0.006753     -0.033091
Li	      2.05510      2.32165      4.14337         0.010276     -0.017924     -0.037456
Li	      4.05061      4.35254      4.21069         0.042517      0.021249      0.012883
Li	      6.25610      4.30293      6.41378        -0.055826      0.007825      0.013302
Li	      2.14203      6.22989      4.16470         0.005813      0.006946      0.022523
Li	      2.11223      4.31076      6.17217        -0.037975      0.017106      0.049292
Li	      8.51069      8.47384      8.43917        -0.031710     -0.014176      0.007040
Sc	      8.34159     10.67302     10.48338        -0.032178      0.037906     -0.047703
Sc	      4.17438      2.26856      6.38584         0.020142      0.016047      0.045694
V	      2.08334      2.12451      0.05370         0.028991     -0.018500     -0.024305
V	      4.19499      2.30925      2.08093        -0.009277     -0.206759     -0.084305
V	      4.21663      6.29189      6.24004        -0.010144      0.041976      0.108183
Fe	      6.31818      2.23405      4.17134        -0.007247     -0.158909      0.059242
Fe	      6.39049      6.31032      8.44269        -0.110835      0.104883      0.046724
Cu	      0.09588      6.38565      6.30495         0.035624      0.039892      0.067966
Ni	      0.14258      4.24244      4.22222        -0.152430     -0.002814      0.080135
O	      2.22507      2.14574      2.01561        -0.037697      0.023911      0.000901
O	      4.25540      4.08143      1.97020        -0.012704      0.105849      0.125735
O	      4.21845      2.11978      4.12601        -0.020845      0.000793      0.039869
O	      6.32882      4.17013      4.12015         0.011083      0.113052      0.024645
O	      6.25921      2.23841      6.24936         0.003997      0.200632     -0.014096
O	      8.52195      4.29037      6.22781        -0.004154     -0.013427      0.015648
O	      2.09825      4.26809      4.24855         0.172939     -0.014318     -0.010216
O	      4.25486      6.44487      4.45799        -0.067457     -0.066260     -0.067182
O	      4.17067      4.37097      6.38400        -0.013602     -0.125199      0.010045
O	      6.26098      6.35237      6.42201         0.039569     -0.047781     -0.053441
O	      6.26670      4.37823      8.54146        -0.000805     -0.082885     -0.118571
O	      8.35699      6.45763      8.36939         0.110541      0.016002     -0.070855
O	      2.16032      6.50352      6.37126         0.016983      0.015539     -0.009899
O	      4.18582      8.36478      6.42503        -0.010229     -0.235688      0.021501
O	      4.26122      6.53877      8.35927        -0.019831     -0.048411      0.046015
O	      6.18915      8.42198      8.54662         0.041884     -0.039103     -0.052911
O	      6.29170      6.45550     10.57134        -0.000644      0.118314     -0.172152
O	      8.36880      8.59551     10.65625         0.044936      0.066898      0.015338
