# total energy = -231.00755020 eV
 
CRYSTAL
PRIMVEC
0.038185 6.348691 6.391188 
6.231679 0.061237 6.368237 
4.201377 4.263469 -0.005620 
PRIMCOORD
36 1
Li	      4.28003     10.49668      6.44921        -0.022945      0.018438     -0.036602
Li	      4.24384      6.40153     10.55441         0.000484      0.034583     -0.042047
Li	      6.32648      8.49780     10.58205         0.046724     -0.017396     -0.016212
Li	      4.22333      6.29555      2.14185        -0.053756      0.065717     -0.009646
Li	      4.15379      4.24075      4.14257         0.017452     -0.022336      0.040568
Li	      4.19781      8.51660      4.37559        -0.002613      0.016317      0.017639
Li	      6.23078      8.51438      6.39520         0.076825     -0.034650      0.004174
Li	      4.18532      6.50281      6.43107         0.013978     -0.032780      0.035968
Li	      6.19861      6.45273      8.52174        -0.029432      0.034563     -0.006205
Sc	      4.23259      2.12094      6.30157         0.107049      0.192047     -0.127214
Sc	      6.27161      4.27150      6.30654        -0.112081     -0.093290      0.022973
V	      6.11908      6.44285      4.25497        -0.026683     -0.141125     -0.041575
V	      8.21546      6.41111     10.69114        -0.238049      0.128054      0.005893
V	      4.21979      4.28564      8.53977         0.121179     -0.042778      0.001976
Fe	      6.24391      4.30321      2.11571         0.183240     -0.003765     -0.041978
Fe	      2.15640      4.24124      2.14817        -0.038258     -0.070639     -0.018458
Cu	      2.19768      8.47682      6.36856        -0.104504      0.031311     -0.040228
Cu	      4.23486      8.48708      8.48441         0.100587     -0.030867      0.084779
O	      4.15015      8.48707      6.53598        -0.054180     -0.009569     -0.064882
O	      1.96772      2.08710      2.30367        -0.093745     -0.160479      0.213902
O	      4.29934      4.18567      2.10583        -0.056452     -0.032874      0.002832
O	      3.99116      2.15038      4.22921        -0.047700      0.034314      0.081040
O	      6.24406      4.42739      4.20567        -0.004143      0.011785      0.065472
O	      6.29588      2.21313      6.28059        -0.067124      0.026185      0.004536
O	      8.36708      4.29258      6.41956        -0.033042      0.158850      0.080634
O	      2.08849      4.27850      4.22168         0.029755      0.023752     -0.022709
O	      4.29498      6.40377      4.28875        -0.096676      0.004001      0.058959
O	      4.22390      4.19658      6.50754         0.012825     -0.035630     -0.059711
O	      6.33706      6.39122      6.24698         0.002013      0.011166      0.018306
O	      6.11443      4.36009      8.43804        -0.072128      0.011789     -0.110958
O	      8.40311      6.49842      8.57574         0.014280      0.031179      0.014217
O	      2.14945      6.43475      6.27512         0.012387     -0.048752     -0.048207
O	      4.11543      6.33358      8.54914         0.062491     -0.049904     -0.053810
O	      6.52553      8.61961      8.52094         0.146018      0.018307     -0.007897
O	      6.46013      6.40549     10.61091         0.220151      0.007398      0.030890
O	      8.43815      8.36672     10.48610        -0.013930     -0.032924     -0.036421
