# total energy = -231.18938892 eV
 
CRYSTAL
PRIMVEC
0.011534 6.344360 6.238792 
6.362829 0.006943 6.243495 
4.246837 4.237532 -0.000237 
PRIMCOORD
36 1
Li	      6.41050      4.18372      2.18291         0.001698     -0.072776      0.002655
Li	      4.24504      2.12040      2.18279        -0.025422      0.008913     -0.042110
Li	      6.32674      2.14145      4.13541        -0.020484     -0.019726      0.022889
Li	      2.22187      2.06862      4.17703         0.032281     -0.003888      0.006646
Li	      4.19610      2.13311      6.13776        -0.037260      0.012316     -0.022797
Li	      6.32650      4.31575     10.37129        -0.034940      0.083283     -0.044479
Li	      8.42064      6.39647     10.38189        -0.071237      0.034857     -0.023361
Li	      8.46860      8.52970      8.43288        -0.001382      0.049801      0.056017
Li	      6.37041      6.33388      8.39709        -0.013857     -0.017683      0.028232
Sc	      4.24490      6.37580      2.20606         0.031368      0.061054      0.024288
Sc	      4.26384      6.32771      6.26171        -0.042181      0.031348      0.034303
V	      8.51464      8.47640     12.39012         0.074612     -0.052003      0.076872
V	      2.10718      4.28995      2.18919        -0.057086     -0.074558      0.002837
V	      6.40789      8.40295      6.32044        -0.024761     -0.040022     -0.175005
Fe	      6.37722      6.37490     12.36556         0.050187      0.009698      0.170603
Fe	      4.20369      6.45467     10.24816         0.093317     -0.073379      0.132719
Ni	      4.31294      4.11051      4.14945         0.046204      0.027997     -0.040292
Ni	      6.38537      4.26456      6.20433        -0.073428     -0.021057      0.062455
O	      2.09884      2.32070      1.99107         0.053602     -0.027110      0.041790
O	      4.12936      4.25542      2.04824         0.070951     -0.030938     -0.138576
O	      4.26747      2.05252      4.14384        -0.000012      0.022083      0.034989
O	      6.40552      4.23840      4.20333         0.061189     -0.025806     -0.089961
O	      6.50724      2.06441      6.29436        -0.094395      0.021164     -0.018429
O	      8.53237      4.21007      6.30849         0.024034      0.078164     -0.014085
O	      2.17043      4.20822      4.16592        -0.125371     -0.006413      0.063903
O	      4.24259      6.28039      4.19186        -0.016422      0.048502     -0.018013
O	      4.18638      4.22199      6.21936        -0.086071     -0.058227      0.145662
O	      6.32780      6.44351      6.22992         0.095179      0.054322      0.018420
O	      6.47916      4.20992      8.27642         0.029857      0.067487      0.146216
O	      8.51697      6.13552      8.33454        -0.072336      0.032039     -0.010038
O	      2.06930      6.29304      6.22067         0.061082     -0.071614     -0.027839
O	      4.27915      8.50084      6.23067         0.063450     -0.029221     -0.040194
O	      4.22438      6.34470      8.32180        -0.027564     -0.026252     -0.192408
O	      6.39569      8.47400      8.05890        -0.007302      0.011359      0.158606
O	      6.27564      6.36768     10.47423         0.060018      0.008478     -0.199175
O	      8.50870      8.56534     10.47285        -0.017517     -0.012192     -0.133341
