# total energy = -237.30535331 eV
 
CRYSTAL
PRIMVEC
0.011159 6.410092 6.357673 
6.416965 0.013992 6.354888 
4.278278 4.271828 0.008566 
PRIMCOORD
36 1
Li	     10.60625     10.63563     12.57259        -0.000186     -0.047329      0.029629
Li	      8.62742      8.67488     12.59099         0.006352      0.057528      0.040384
Li	      8.76717     10.49340     10.70649         0.004858      0.036098     -0.025558
Li	      8.51898      4.35965      8.39329         0.027662     -0.009463     -0.000658
Li	      6.49982      4.28111      6.39200        -0.015948     -0.038881     -0.011362
Li	     10.50520      8.76347     10.63847         0.000875     -0.045008      0.037068
Li	      8.48964      6.48994     10.57467        -0.004458      0.035306      0.001012
Li	      8.60526      8.56057      8.61650         0.005164     -0.001984      0.032954
Li	      6.44159      6.33646      8.60160         0.013425     -0.011979     -0.008295
Sc	      4.22650      2.13589      2.08229         0.007626      0.040136     -0.018336
Sc	      6.58757      8.41933     10.67139         0.069785      0.062174      0.015871
V	      2.13303      6.41936      8.41468        -0.045673      0.013962     -0.011670
V	      6.36443      2.32871      8.41257        -0.010394     -0.273424     -0.035982
V	      4.19920      4.32569      4.25773        -0.027172     -0.024177      0.062910
Fe	      6.40938      6.39667      4.28943         0.034636     -0.081044     -0.093962
Fe	      8.50573      6.22111      6.41567         0.004554      0.218090     -0.069521
Fe	      4.30188      6.43599      6.36546         0.055315     -0.102902     -0.097743
Co	      2.15833      4.28696      6.37513         0.044893      0.044717     -0.025854
O	      2.06485      2.04952      2.10849        -0.032884     -0.001665     -0.089972
O	      4.30268      4.33655      2.19892         0.007262     -0.007330      0.028813
O	      4.31281      2.27676      4.28431         0.037189      0.028776      0.026803
O	      6.20844      4.30222      4.14053        -0.085802     -0.096844      0.007246
O	      6.32018      2.15004      6.45329        -0.042643      0.018979      0.014728
O	      8.51732      4.36823      6.34011        -0.017343     -0.221713     -0.015083
O	      2.37248      4.19137      4.20938         0.002477      0.126946     -0.004779
O	      4.25629      6.28627      4.18661        -0.067653      0.048086      0.000985
O	      4.30772      4.37429      6.21470         0.017331     -0.046954     -0.000311
O	      6.42525      6.45775      6.40584         0.002762     -0.007088      0.108076
O	      6.47278      4.05850      8.52974         0.012633      0.221206      0.026438
O	      8.71817      6.42112      8.37613         0.006534      0.025939      0.096978
O	      2.28182      6.34290      6.44715         0.030536     -0.023119     -0.071114
O	      4.32778      8.45038      6.38527         0.029137      0.106824      0.020549
O	      4.22905      6.47586      8.38597         0.031417     -0.008976      0.066052
O	      6.34620      8.66053      8.54048        -0.047832     -0.011240     -0.020015
O	      6.46412      6.45538     10.57904        -0.026427     -0.004947     -0.009388
O	      8.53051      8.57379     10.61625        -0.028007     -0.018700     -0.006894
