# total energy = -233.53204491 eV
 
CRYSTAL
PRIMVEC
0.038519 6.423530 6.600905 
6.304746 0.044980 6.595265 
4.231047 4.306007 0.001985 
PRIMCOORD
36 1
Li	      0.24251      6.45929      6.55810        -0.018453     -0.007604     -0.057757
Li	      2.14728      8.26966      6.60054        -0.016939      0.063041      0.062979
Li	      2.15904      6.26729      8.52853         0.073883      0.018839      0.034383
Li	      4.53646      8.48567      8.61138        -0.093465     -0.091065     -0.051886
Li	      6.41898      8.58309     10.76219         0.006407     -0.016347     -0.017392
Li	      2.07827      6.43121      4.74897         0.009950     -0.014835     -0.041379
Li	      2.16084      4.52038      6.78286         0.008192     -0.039075     -0.003698
Li	      3.97931      6.52437      6.85201         0.039856     -0.013536      0.057488
Li	      6.32710      6.66152      8.81497         0.011404     -0.008383      0.026861
Sc	      2.11791      2.18319      4.35387        -0.035382      0.046727     -0.038360
Sc	      6.34375      4.32525      6.60644        -0.015691     -0.012311      0.031365
V	      4.23576      6.40573      2.19021         0.090517      0.087736     -0.058651
V	      4.21854      2.15404      6.57635        -0.031172      0.025180     -0.009337
V	      4.20993      8.63460      4.70914        -0.001592     -0.010235      0.220777
Fe	      4.29388      6.40073     10.76816         0.003287      0.054011      0.172782
Fe	      8.39228      4.37677      8.81275        -0.090334      0.045951     -0.068327
Fe	      4.19753      4.31432      4.35272        -0.021785      0.019155      0.073517
Cu	      8.33795      8.65974      8.84593         0.066399      0.020567     -0.070039
O	      6.43347      8.58692      8.81771        -0.114694      0.083707     -0.021540
O	      1.96303      2.27954      2.23470         0.034239      0.033363      0.043891
O	      4.21625      4.56159      2.31103         0.013972      0.085168     -0.009833
O	      4.23089      2.07304      4.50859         0.006147     -0.035901      0.004878
O	      6.40951      4.37613      4.51385         0.046936     -0.018122      0.023858
O	      6.24290      2.22560      6.78699         0.007596     -0.015225      0.037062
O	      8.44848      4.56943      6.62440        -0.024311      0.080943     -0.053473
O	      1.99842      4.28462      4.33603        -0.058460     -0.083752      0.024726
O	      4.22659      6.57748      4.22921         0.065662      0.048423      0.005252
O	      4.26362      4.05974      6.39580         0.016571     -0.055214     -0.069985
O	      6.46108      6.38395      6.51202         0.059647     -0.019888     -0.010278
O	      6.19201      4.15388      8.77511        -0.027112     -0.105130     -0.069438
O	      8.50719      6.50797      8.59089        -0.088325     -0.095441     -0.073520
O	      2.13353      6.41350      6.62795        -0.005409     -0.042096      0.024376
O	      4.28367      8.52392      6.45043        -0.001488      0.024148     -0.068705
O	      4.25270      6.40868      8.86828         0.005531      0.014787     -0.127632
O	      6.26624      6.27388     10.99789         0.054860     -0.005826     -0.040018
O	      8.57022      8.74620     11.12001         0.023553     -0.061760      0.117051
