# total energy = -234.81646204 eV
 
CRYSTAL
PRIMVEC
0.025284 6.411777 6.244967 
6.432589 -0.013610 6.283726 
4.281715 4.293789 -0.002380 
PRIMCOORD
36 1
Li	      6.46772      4.37312      2.32670        -0.007613      0.009931     -0.089960
Li	      4.19862      2.08978      2.18111        -0.018777      0.001194      0.057364
Li	      8.34924      4.32199      4.11642         0.014757      0.065677      0.039841
Li	      6.39166      2.35230      4.10992        -0.092957     -0.002629     -0.001852
Li	      4.37873      6.37301      2.14725         0.002142     -0.061346     -0.032326
Li	      2.21719      4.18468      2.15153         0.093279     -0.034028      0.005294
Li	      6.41076      6.21675      4.02026         0.004832      0.029363      0.053752
Li	      4.44924      4.35863      4.14502        -0.012562     -0.012961      0.014253
Li	      4.34247      6.33635      6.25155        -0.001597     -0.021027     -0.019920
Sc	      2.09489      2.16926      0.12976        -0.048330      0.028190     -0.015509
Sc	      0.09939      4.17873      4.09551         0.014621     -0.019612      0.010599
V	      4.27192      4.30926      0.15532        -0.045439      0.055990      0.080638
V	      2.20222      6.39590      4.10743         0.014272     -0.071863     -0.013222
V	      4.29614      2.12266      6.13285         0.106586     -0.154153     -0.048332
Fe	      2.17259      4.27631      6.26177        -0.093381      0.107272     -0.046932
Fe	      4.25529      4.34096      8.34831         0.013752     -0.079478      0.071004
Fe	      6.37157      6.45994      8.37677         0.068647      0.038299     -0.006993
Ni	      6.38636      4.33800      6.19227         0.168327     -0.104857      0.067172
O	      2.14430      2.15697      2.04936        -0.022745      0.022418      0.083007
O	      4.29559      4.28139      1.89104         0.019039     -0.032346      0.122430
O	      4.29390      2.12855      4.39081        -0.032672      0.023505     -0.063959
O	      6.42209      4.28011      4.24877         0.032361     -0.049189     -0.226938
O	      6.35749      2.02178      6.29009         0.018109      0.022364     -0.024388
O	      8.68487      4.35169      6.26675        -0.036895     -0.017309     -0.010502
O	      2.14250      4.40059      4.17168        -0.004486     -0.086950      0.069515
O	      4.19272      6.46034      4.18282         0.049952     -0.023752     -0.012319
O	      4.33256      4.12040      6.33986         0.007924      0.110952     -0.041123
O	      6.58526      6.40028      6.34887        -0.066382     -0.058800     -0.057622
O	      6.35469      4.36876      8.31120         0.078708     -0.060816      0.046288
O	      8.51390      6.48789      8.27212         0.030562     -0.018737     -0.022971
O	      2.01511      6.46155      6.18514         0.073300      0.180205      0.058263
O	      4.24223      8.72411      6.19540        -0.099763     -0.091797     -0.015261
O	      4.39790      6.32456      8.32040        -0.102124      0.066031      0.020129
O	      6.51410      8.46321      8.34060        -0.036898      0.119068     -0.054784
O	      6.57730      6.34062     10.44691        -0.023975      0.055302     -0.000702
O	      8.65727      8.43717     10.38480        -0.064574      0.065889      0.006065
