# total energy = -244.61449172 eV
 
CRYSTAL
PRIMVEC
0.033029 6.314348 6.289349 
6.459237 0.001249 6.320551 
4.299071 4.223011 0.008190 
PRIMCOORD
36 1
Li	     10.55484      4.32123      6.34580        -0.048652      0.052648      0.020642
Li	      8.51545      2.28246      6.33415        -0.064404     -0.045619      0.045864
Li	      4.34729      8.41593      8.29887        -0.050732     -0.013185     -0.003054
Li	      8.75622     10.48114     10.68209        -0.037306     -0.014366     -0.010256
Li	      6.41958      2.00880      4.37567        -0.020926     -0.007003     -0.002991
Li	      6.43044      2.11844      8.22752         0.073270     -0.018795      0.025528
Li	      8.61140      4.24836      8.26037        -0.077999     -0.025648     -0.027641
Li	      8.75534      6.18600      6.44191         0.068460     -0.016737     -0.011675
Li	      6.50583      6.34003      8.45503        -0.023730      0.004768      0.055862
Sc	      4.34339      4.21909      4.21042         0.301322     -0.043723     -0.249696
Sc	      8.53998      6.41376     10.54178        -0.058843      0.118922      0.180456
Ti	      2.30419      2.10500      4.14738         0.363569     -0.410178     -0.565628
Mn	      8.57087      8.41273      8.42791         0.068425      0.306605      0.116102
V	      2.17183      6.27578      8.30442         0.128725      0.483202      0.269091
V	      6.47569      4.25009     10.48817        -0.162827     -0.038446     -0.126966
Cr	      6.55903      4.16098      6.38313         0.198159     -0.248800     -0.140268
Co	      6.45155      8.34149      6.34309        -0.053725      0.045102      0.122694
Co	      4.33552      6.38054      6.33451        -0.148254     -0.236757      0.131835
O	      2.21204      1.94927      2.21146         0.029324      0.180422      0.363947
O	      4.59237      4.18562      2.13463        -0.331524     -0.005877     -0.018732
O	      4.15657      2.17185      4.18257        -0.399188      0.004399      0.042152
O	      6.42935      4.33488      4.20326        -0.073952      0.095206      0.123121
O	      6.45206      2.22988      6.30506        -0.084143      0.055790      0.015852
O	      8.50754      4.23613      6.37872        -0.146400      0.093070      0.063356
O	      2.19715      4.14217      4.07747         0.015788      0.026749      0.233186
O	      4.35890      6.35417      4.15704         0.035169     -0.002934     -0.154158
O	      4.37211      4.29808      6.25887        -0.236110     -0.227418      0.055417
O	      6.40863      6.24567      6.14082         0.193542      0.415925      0.031964
O	      6.33299      4.25408      8.41992        -0.012212      0.010854      0.013456
O	      8.58067      6.48697      8.49352        -0.039580     -0.039381     -0.095877
O	      2.23443      6.28318      6.38494        -0.151911     -0.420999     -0.400427
O	      4.39663      8.34070      6.17395         0.407947      0.464247      0.140698
O	      4.10841      6.19171      8.42897         0.287228     -0.164732      0.133061
O	      6.54483      8.52739      8.43633        -0.038295     -0.456188     -0.346674
O	      6.51619      6.21428     10.53717         0.072111      0.098291      0.026913
O	      8.72200      8.40230     10.56443         0.017676     -0.019415     -0.057153
