# total energy = -246.56436300 eV
 
CRYSTAL
PRIMVEC
-0.002394 6.211708 6.492048 
6.349691 0.006839 6.483059 
4.243595 4.145650 -0.006237 
PRIMCOORD
36 1
Li	      8.45831      8.30733     12.94391         0.027441      0.060152     -0.032988
Li	      2.22535      6.28292      8.62218        -0.037634     -0.002823      0.009940
Li	      4.19013      8.15211      8.73388         0.005801      0.007456     -0.062322
Li	      4.29003      6.18488     10.69833        -0.014978     -0.002328      0.020560
Li	      6.31199      2.08947      4.30818         0.031872     -0.014284      0.020989
Li	      0.04287      2.07109      2.17524         0.020822      0.027022     -0.025271
Li	      4.24693      2.09461      6.35357         0.046252     -0.058287     -0.110839
Li	      4.19107      6.22088      6.61112         0.020978      0.049792      0.004858
Li	      6.20232      6.23938      8.78615        -0.002199      0.027337      0.056099
Sc	      6.34549      0.11859      6.52088        -0.193623     -0.149344      0.026898
Sc	      8.42077      4.19301      8.61961        -0.017878     -0.175048     -0.228583
Ti	      6.34108      8.19257      6.62301        -0.348084     -0.099776      0.385098
Mn	      4.23368      4.19364      8.69922        -0.000740      0.126112      0.317161
V	      6.35815      4.10367      6.45890        -0.042937     -0.033000      0.118974
V	      8.48302      6.28831     10.82259         0.101620     -0.101705     -0.090134
Cr	      4.25987      4.12481      4.26315        -0.023684      0.030308      0.032285
Fe	      2.20606      1.99232      4.23610        -0.090404      0.046426     -0.014007
Co	      4.21511      8.27168      4.35370        -0.398392      0.066188      0.099006
O	      2.08782      2.11983      2.30358        -0.018645      0.067370     -0.035878
O	      4.17132      4.17411      2.18206        -0.050509      0.035699      0.040221
O	      4.16699      2.12605      4.27462         0.052589      0.071143     -0.003834
O	      6.25009      4.17829      4.41132        -0.002440     -0.066426      0.114989
O	      6.37355      2.14732      6.47325        -0.028973      0.046234      0.008129
O	      8.46108      4.16301      6.56035         0.169933      0.062866      0.152191
O	      2.18690      4.13422      4.34826        -0.007969     -0.120765      0.053405
O	      4.20612      6.18383      4.32452         0.070877      0.006816     -0.084829
O	      4.20403      4.12034      6.35156        -0.209260     -0.001673     -0.077401
O	      6.36792      6.24785      6.33229         0.037369      0.142249     -0.010083
O	      6.29983      4.19803      8.53274        -0.026447      0.010974     -0.174074
O	      8.46079      6.34202      8.79175         0.003600     -0.143075      0.214493
O	      2.09956      6.08457      6.41994         0.031901     -0.046354     -0.288514
O	      4.41640      8.28814      6.46707         0.412660      0.035933      0.089993
O	      4.21183      6.06672      8.66619         0.039879     -0.161807     -0.048584
O	      6.42255      8.24671      8.46168         0.049271     -0.015559     -0.494180
O	      6.46382      6.18518     10.90038         0.151084      0.079341      0.013560
O	      8.50158      8.28245     10.79910         0.240846      0.192834      0.002673
