# total energy = -242.94106744 eV
 
CRYSTAL
PRIMVEC
0.006870 6.416115 6.325891 
6.299923 0.012358 6.320897 
4.208927 4.283300 -0.000946 
PRIMCOORD
36 1
Li	      4.24257     10.64482      6.34046         0.028105     -0.131888     -0.035794
Li	      2.11087      2.13528      0.05170         0.087628     -0.013566     -0.087289
Li	      4.25426      8.54302      8.47701         0.143725     -0.048243      0.032150
Li	      6.22999      2.23082      4.15937         0.058444      0.046808     -0.130226
Li	      6.33835      6.46181      4.28884        -0.001671     -0.050126      0.050156
Li	      8.22588      6.50741      6.33115        -0.029674      0.051425     -0.028252
Li	      6.28653      4.39121      6.30672        -0.035560      0.086634     -0.037026
Li	      6.38236      8.44499      6.41531         0.012528     -0.009539      0.088985
Li	      6.36353      6.59252      8.32713        -0.038977      0.237995      0.052985
Sc	      4.13715      0.16363      4.30303        -0.074976     -0.005137     -0.204769
Sc	      4.33738      6.38904      6.38457         0.040838     -0.204429      0.265493
Ti	      6.31195      4.35963     10.59930        -0.197935      0.162397      0.529181
Mn	      8.33894      6.51166     10.62961        -0.030011      0.052931      0.044536
V	      6.30583      2.11550      8.21809         0.132674      0.643507      0.152893
V	      8.38660      4.24686      8.30003        -0.014554     -0.076582      0.025833
Cr	      4.22796      4.19877      4.24533        -0.012783      0.104359      0.458181
Fe	      6.33661     10.58460      8.36812         0.151082     -0.300825      0.204272
Cu	      8.39100      8.51107      8.36079         0.134348      0.405452     -0.028541
O	      1.96131      2.21656      2.10409        -0.471954     -0.258083     -0.119029
O	      4.21735      4.35503      2.19162        -0.065589      0.443064     -0.237567
O	      4.21445      2.20969      4.21613        -0.004622      0.035577      0.054982
O	      6.24511      4.28073      4.12408        -0.022911      0.018569      0.043211
O	      6.30802      2.10624      6.49413        -0.003351     -0.045222      0.404092
O	      8.40283      4.26722      6.34882         0.003580     -0.086227      0.146593
O	      2.07472      4.25537      4.07210        -0.010415     -0.038696     -0.101489
O	      4.21557      6.39072      4.19090         0.001976      0.011312     -0.234421
O	      4.22515      4.30070      6.24753         0.032966     -0.047309     -0.450529
O	      6.28211      6.40660      6.39273         0.055351     -0.009763     -0.062117
O	      6.25202      4.08113      8.52207         0.127091     -0.991062     -0.352706
O	      8.52907      6.26173      8.45845         0.565488     -0.415689     -0.137111
O	      2.12095      6.45802      6.43857        -0.094263      0.148354     -0.252785
O	      4.26616      8.51713      6.12284        -0.095718      0.050008     -0.289478
O	      4.11679      6.55893      8.47554         0.107627      0.385268     -0.010562
O	      6.44034      8.64635      8.44213        -0.771740      0.031353      0.048886
O	      6.25331      6.26233     10.50891         0.097057     -0.149009     -0.030477
O	      8.56325      8.64212     10.48742         0.196193     -0.033615      0.227739
