# total energy = -247.44070927 eV
 
CRYSTAL
PRIMVEC
-0.003551 6.491429 6.377391 
6.303920 0.015485 6.358786 
4.209130 4.322169 0.003864 
PRIMCOORD
36 1
Li	      0.13680      6.46490      6.22999         0.008008      0.002196      0.025952
Li	      6.36064      8.55740     10.61384         0.029813     -0.043597     -0.039930
Li	      6.25860      2.35456      8.52180         0.019135     -0.030094      0.041285
Li	      8.35360      4.34243      8.52548         0.015751     -0.034008      0.037271
Li	      2.08405      2.26464      4.25936        -0.052817      0.003546      0.019454
Li	      8.32012      6.50102     10.64772         0.050965     -0.022499      0.117998
Li	      2.08637      4.38073      6.31393         0.026373      0.033217      0.018081
Li	      8.48546      8.51841      8.53603        -0.070927      0.043476     -0.029603
Li	      6.36569      6.39233      8.52042        -0.026096      0.015609     -0.018677
Sc	      6.26539      4.34295      2.16378         0.018113     -0.084522     -0.122448
Sc	      4.32628      6.47347     10.62948         0.058673     -0.048302     -0.129339
Ti	      4.24744      8.68936      8.49134         0.332286      0.106951     -0.220094
Mn	      6.39400      4.31053     10.47901         0.039463     -0.022904     -0.004647
V	      8.33432      2.17902      6.36316         0.065375     -0.154151     -0.035208
V	      8.38085      6.48145      6.47833        -0.075057      0.093552      0.255166
Cr	      6.29321      4.31747      6.39011        -0.346777      0.205520      0.061302
Fe	      4.06438      4.46926      4.25816         0.105767     -0.080912     -0.013553
Fe	      4.24617      6.50665      6.33953         0.017914     -0.021992      0.022885
O	      2.18363      2.13017      2.03647         0.112496      0.000305      0.088357
O	      4.19201      4.15325      2.24815         0.050702     -0.155497     -0.066617
O	      4.19825      2.13779      4.25511         0.012610      0.044673     -0.043957
O	      6.27645      4.31658      4.27346         0.011405      0.016628      0.054151
O	      6.28513      2.26946      6.37020        -0.016946      0.059994      0.017079
O	      8.32804      4.42007      6.34591        -0.016595      0.029630      0.004987
O	      2.18309      4.33522      4.28175        -0.145184     -0.045644     -0.009758
O	      4.21635      6.40941      4.23557         0.037188      0.001819     -0.093463
O	      4.24965      4.17743      6.28387         0.142612     -0.015181      0.014392
O	      6.38348      6.36832      6.35648         0.077124     -0.071822     -0.023963
O	      6.26330      4.33790      8.36796         0.051266     -0.033001     -0.075840
O	      8.41447      6.50732      8.22496         0.026232     -0.023993     -0.111658
O	      2.14683      6.59288      6.45457        -0.009906     -0.084826      0.069004
O	      4.10055      8.69876      6.54019         0.010508      0.005046      0.171564
O	      4.16883      6.65010      8.54801        -0.081812      0.131346      0.091411
O	      6.14403      8.73037      8.46295        -0.344490      0.042028     -0.000727
O	      6.30469      6.47943     10.60795        -0.094051      0.045588      0.014866
O	      8.41942      8.70159     10.75486        -0.039121      0.091819     -0.085723
