# total energy = -248.75673988 eV
 
CRYSTAL
PRIMVEC
0.000875 6.514347 6.268386 
6.225672 0.001714 6.267603 
4.157666 4.349371 -0.006073 
PRIMCOORD
36 1
Li	      2.00547      2.19012      0.12323        -0.020949      0.026234      0.000198
Li	      6.18964      4.36765      2.06903         0.018921      0.022810      0.014038
Li	      6.23021      2.27185      8.27119        -0.004376      0.021975     -0.015897
Li	      8.23057      4.39724      8.29843         0.021428      0.030164     -0.019633
Li	      6.23419      4.36257      6.49742         0.033328      0.038242     -0.007168
Li	      8.28450      6.57918     10.30393        -0.016351      0.035083     -0.064089
Li	      6.25322      8.65864      6.33352        -0.007173     -0.025375      0.034206
Li	      8.29595      8.52899      8.37087        -0.012641     -0.026258     -0.000482
Li	      6.33254      6.49051      8.29487        -0.021586     -0.002826      0.036088
Sc	      4.19992      8.75579      8.27815         0.087386     -0.052746     -0.043006
Sc	      8.26272     10.74367     10.43955         0.056489     -0.168836      0.004037
Ti	      4.02885      6.40453      6.33661        -0.349126     -0.065081      0.167578
Mn	      8.28033      6.52922      6.36918         0.009937     -0.058103     -0.088843
V	      2.05083      2.18885      4.15351        -0.227363      0.043825     -0.086812
V	      6.25727      4.34678     10.32764         0.091196     -0.226961      0.128269
Cr	      0.05130      6.55071      6.28379         0.017585      0.000299     -0.037257
Cr	      4.11747      4.42103      4.12200         0.109618      0.068015     -0.027386
Co	      6.33720      8.65719     10.41368         0.069688     -0.141362     -0.071660
O	      2.12314      2.13787      2.20119        -0.056757      0.023061      0.003047
O	      4.16841      4.31295      2.07908        -0.037411     -0.066002      0.090148
O	      4.15046      2.27699      4.26179         0.039791      0.079159      0.047435
O	      6.16244      4.45449      4.19661         0.058942     -0.017425     -0.032732
O	      6.15057      2.03108      6.20517        -0.015112     -0.019371      0.052410
O	      8.42558      4.35661      6.20482        -0.090309     -0.055233     -0.014764
O	      2.08953      4.20571      4.17429         0.159663      0.141377      0.015233
O	      4.13336      6.46566      4.27177        -0.116460     -0.050200      0.060824
O	      4.12697      4.51224      6.15904         0.021067      0.184659     -0.019159
O	      6.19569      6.52541      6.19102        -0.071991      0.014924      0.076691
O	      6.22965      4.33914      8.45697        -0.034985     -0.005498     -0.144807
O	      8.30956      6.53895      8.19036         0.006203     -0.012772      0.003804
O	      2.14627      6.53492      6.27601         0.310707     -0.023502      0.033854
O	      4.19040      8.69455      6.21712        -0.007577     -0.012177      0.065982
O	      4.16291      6.58465      8.24982        -0.013088      0.064889     -0.172996
O	      6.21028      8.69637      8.45195         0.013312      0.038151     -0.000809
O	      6.23105      6.43286     10.54786         0.023858      0.064631     -0.014118
O	      8.37275      8.72358     10.44998        -0.045862      0.132230      0.027776
