# total energy = -250.87870954 eV
 
CRYSTAL
PRIMVEC
-0.017842 6.445289 6.263283 
6.419347 0.015173 6.231104 
4.297721 4.293098 -0.007912 
PRIMCOORD
36 1
Li	      4.42082     10.58802      6.31899         0.020628     -0.040491     -0.048316
Li	      6.34055      4.30026      2.04115        -0.071464     -0.007982      0.085260
Li	      4.29891      2.20363      2.07636        -0.006402      0.017794      0.040670
Li	      2.15464      2.15959      4.14812         0.042814     -0.025380     -0.001835
Li	      4.25241      4.32008      4.17648         0.014869     -0.031945     -0.023030
Li	      4.20143      2.19853      6.17209        -0.033443      0.018381     -0.088873
Li	      4.35352      8.51738      4.22045         0.013320      0.021677      0.018700
Li	      2.21089      6.36826      4.23916        -0.015614      0.002406      0.019729
Li	      2.02947      4.41112      6.18268         0.006455      0.001629      0.000178
Sc	      2.23972      8.50283      6.24049        -0.034935      0.096408      0.086694
Sc	      6.29485      2.19033      4.19558        -0.213732     -0.008792      0.118416
Ti	      6.44466      6.55389      8.30787        -0.164088      0.219823      0.196857
Mn	      4.23014      0.09046      4.13583         0.057803      0.054686      0.065484
V	      2.19770      4.28194      2.21900         0.255396     -0.064935     -0.000915
V	      6.39300      4.32366      6.21916         0.221842     -0.049671     -0.458598
Cr	      4.28491      6.41661      2.15213        -0.039941     -0.121821     -0.009759
Cr	      4.29041      6.45790      6.17705         0.023487      0.083196      0.010722
Fe	      8.57898      8.54358      8.35166        -0.067204      0.075061      0.078592
O	      2.01233      2.26911      2.08785        -0.006598     -0.036287     -0.002473
O	      4.13865      4.43540      2.04512        -0.024238     -0.068090      0.035539
O	      4.30010      2.15904      4.16246         0.057127      0.120571     -0.044117
O	      6.41536      4.25692      4.19316        -0.128443      0.116017      0.168789
O	      6.44554      2.21897      6.30378         0.000323     -0.108673      0.089348
O	      8.44700      4.24703      6.37212         0.016823      0.038546      0.159867
O	      2.11796      4.30492      3.98111        -0.001681      0.015893     -0.018610
O	      4.25822      6.46360      4.14115        -0.014450     -0.005348     -0.008764
O	      4.41668      4.42413      6.30726        -0.194327     -0.154498      0.002151
O	      6.37097      6.39059      6.31258        -0.035891      0.218520      0.175333
O	      6.52062      4.29558      8.29071        -0.117865      0.034847     -0.039682
O	      8.53816      6.34663      8.27588        -0.012325      0.062287      0.021462
O	      2.25687      6.46368      6.29639        -0.019334     -0.087677      0.006754
O	      4.25673      8.50774      6.24850         0.064753     -0.000452     -0.009754
O	      4.48444      6.42399      8.22722         0.114688      0.012020     -0.068880
O	      6.41796      8.44226      8.32461         0.089665     -0.184774     -0.032297
O	      6.41322      6.49564     10.24245         0.112615     -0.089564     -0.295832
O	      8.46692      8.64653     10.40941         0.089369     -0.123382     -0.228810
