# total energy = -247.32963933 eV
 
CRYSTAL
PRIMVEC
0.002386 6.294991 6.444192 
6.469578 -0.004220 6.450967 
4.300997 4.189065 0.009218 
PRIMCOORD
36 1
Li	      4.42731     10.37134      6.56297         0.072846      0.023781      0.058170
Li	      2.22529      8.30065      6.54190        -0.009433     -0.010607      0.066252
Li	      4.20544      6.18952      2.33868         0.006728     -0.038215     -0.010600
Li	      2.28839      4.23004      2.26009         0.026995      0.012386     -0.034059
Li	      4.09900      4.28328      4.15278        -0.012849     -0.022283     -0.019707
Li	      6.59404      4.15460     10.58284        -0.027964      0.000221     -0.079829
Li	      2.21239      6.12139      4.34686        -0.024815      0.022566      0.032865
Li	      1.99354      4.29468      6.25645        -0.049158     -0.003413     -0.024083
Li	      6.52409      6.21841      8.67676        -0.006655      0.006285      0.006725
Sc	      6.53106      4.20767      6.56066        -0.018038      0.012058      0.051990
Sc	      4.15710      6.34985      6.33345        -0.101038      0.060623      0.109600
Ti	      6.54917      8.22573     10.79395         0.222149     -0.131251     -0.123727
Mn	      8.66611     10.45519     10.78966        -0.060123     -0.047924     -0.048081
Mn	      2.05948      2.19341      4.22824         0.089892     -0.077366     -0.079587
V	      4.30740      2.15658      6.44474        -0.050774     -0.060588     -0.088869
V	      8.59898      8.32432      8.60044        -0.144645      0.130657      0.047362
Cr	      4.32723      2.18388      2.15635         0.075259     -0.104450     -0.000018
Co	      2.10612      0.03626      2.11783        -0.128079     -0.010932     -0.115117
O	      2.31407      2.06042      2.27566         0.005233      0.149918      0.098441
O	      4.39215      4.12470      2.17117         0.085740      0.113154      0.069218
O	      4.50973      2.17911      4.31266         0.041200     -0.061068     -0.089119
O	      6.69441      4.25488      4.34811         0.077921     -0.021135      0.133959
O	      6.42907      2.14760      6.27171        -0.153185      0.007537     -0.063578
O	      8.59645      4.32648      6.37096        -0.017368     -0.147129     -0.095308
O	      2.11516      4.06751      4.23096        -0.029232      0.038072      0.004406
O	      4.26239      6.26452      4.33591        -0.009370     -0.003097     -0.049377
O	      4.37484      4.17053      6.49447         0.045130      0.184716      0.006506
O	      6.48443      6.29586      6.28532         0.152597      0.025066     -0.006888
O	      6.26669      4.22687      8.56319         0.155191     -0.045875      0.017325
O	      8.54475      6.37535      8.43134         0.003410     -0.132639      0.042437
O	      2.18143      6.28207      6.45313         0.100948     -0.010604     -0.073995
O	      4.29521      8.36034      6.64842        -0.019402     -0.078708     -0.006984
O	      4.25276      6.25815      8.69259         0.054959      0.167351      0.010203
O	      6.46014      8.45647      8.78258        -0.077239     -0.146091      0.121493
O	      6.33605      6.36264     10.72621        -0.059516      0.185694      0.018124
O	      8.44419      8.33562     10.67741        -0.217314      0.013291      0.113852
