# total energy = -246.03512064 eV
 
CRYSTAL
PRIMVEC
0.040186 6.455637 6.345715 
6.473532 0.041787 6.343853 
4.320571 4.307525 0.022803 
PRIMCOORD
36 1
Li	      2.13940      0.14440      2.08226        -0.004954      0.073248      0.014791
Li	      4.35590      8.56331      8.39314        -0.015119     -0.013782      0.009562
Li	      6.37183      6.54683      4.31967         0.022998      0.027481     -0.012073
Li	      4.24093      4.43466      4.27929         0.004387     -0.022577      0.003724
Li	      4.25880      2.25454      6.32471        -0.036166      0.002571      0.004629
Li	      4.48653      8.45907      4.39048         0.005483      0.039803     -0.033300
Li	      2.38330      6.28696      4.32255        -0.003731     -0.016311     -0.007118
Li	      2.22082      4.23944      6.17399         0.026364     -0.055307      0.053374
Li	      4.23586      6.58718      6.21886         0.022856     -0.049210      0.019633
Sc	      0.16849      6.36827      6.28865         0.024597     -0.065805     -0.000914
Sc	      2.23969      4.27152      2.30826        -0.008377      0.026192      0.090761
Ti	      6.33500      4.43480      6.26109        -0.427056      0.209376     -0.044739
Mn	      4.37939      6.43077      2.22894        -0.048534      0.006885      0.053394
Mn	      8.61403      8.61002      8.55239         0.027907      0.010682     -0.069454
V	      4.32291      0.15295      4.23128         0.030868      0.041902     -0.091101
V	      6.47971      6.54976      8.49806         0.027701     -0.089774     -0.085147
Cr	      2.23035      8.60180      6.33987         0.066412     -0.052641      0.061860
Cu	      6.39701      2.31071      4.19340        -0.191352      0.093533     -0.058304
O	      2.12363      2.19360      2.02910         0.046562      0.015003     -0.008849
O	      4.29986      4.34624      2.06036        -0.004661      0.000443     -0.027883
O	      4.39516      1.94241      4.28176         0.077771      0.069912      0.001948
O	      6.60475      4.45859      4.37775        -0.028141     -0.082087      0.134492
O	      6.57392      2.27214      6.53684         0.007904      0.023205     -0.045408
O	      8.63317      4.26735      6.31045        -0.003574     -0.026491     -0.000156
O	      2.22429      4.24921      4.24436         0.000176     -0.001320     -0.043696
O	      4.33895      6.47820      4.08650        -0.009420      0.020979      0.048395
O	      4.50411      4.29045      6.33182         0.420641     -0.003927     -0.052208
O	      6.48344      6.33064      6.47566         0.019021     -0.303662     -0.041948
O	      6.54720      4.44397      8.34128         0.030550     -0.086673     -0.036821
O	      8.55461      6.44144      8.49636         0.049375     -0.019265      0.004866
O	      2.16412      6.58270      6.31453        -0.022413      0.097755     -0.019162
O	      4.23664      8.66217      6.35609        -0.026333      0.014777     -0.020932
O	      4.47402      6.43842      8.60654        -0.024348      0.053317      0.010179
O	      6.48933      8.34331      8.37035        -0.025311      0.154344      0.048004
O	      6.37423      6.33699     10.47353         0.065306     -0.037399      0.079934
O	      8.55491      8.88515     10.67950        -0.097388     -0.055179      0.059665
