# total energy = -101.91266728 eV
 
CRYSTAL
PRIMVEC
0.003716 2.184687 2.182517 
3.878113 0.003947 0.004519 
-0.000100 9.129114 -9.119952 
PRIMCOORD
16 1
Li	      3.87977      2.48501      1.79727        -0.000900     -0.031357      0.021683
Li	      1.94345      2.39693     -0.32954         0.002403     -0.016645      0.031200
Li	      0.00429      6.42195     -2.12629         0.000707      0.014821     -0.007930
Li	      0.00436      6.91585     -6.76566         0.014590     -0.011582     -0.026814
Ti	      1.90698      6.71784     -4.61926        -0.087161     -0.257438      0.013919
Ti	      1.90957      9.05237     -6.97447        -0.077608      0.106599     -0.358748
Ni	      0.00682      4.29125     -0.03356        -0.000066      0.013547      0.000969
Ni	      1.94434      4.27165     -2.19206         0.001665      0.170581     -0.152716
O	      0.02359      6.97868     -4.61146         0.090892     -0.026368     -0.023201
O	      1.95430      7.06026     -6.58013        -0.010607     -0.020558      0.074906
O	      0.00547      4.50579     -2.39047         0.000632      0.059545     -0.045068
O	      1.94939      4.88082     -4.81589        -0.009157      0.291805     -0.059927
O	      0.00487      2.21273     -0.12736         0.001679     -0.079138      0.074813
O	      1.94582      4.48640     -0.22215         0.001568     -0.099108      0.112785
O	      0.02309      9.01264     -6.68605         0.078693     -0.029946     -0.009024
O	      1.94899      8.80975     -8.79373        -0.007331     -0.084761      0.353154
