# total energy = -248.08615767 eV
 
CRYSTAL
PRIMVEC
-0.013560 6.361067 6.304327 
6.446084 -0.001432 6.292273 
4.288376 4.223989 0.007957 
PRIMCOORD
36 1
Li	      0.23530      6.30663      6.27628        -0.010891      0.000015     -0.044862
Li	      2.17908      8.28273      6.26128        -0.002765      0.053985      0.022945
Li	      2.14146      6.35946      8.20723         0.034341     -0.019645      0.058227
Li	      8.57274      4.20398      4.26405         0.019419      0.030834      0.018109
Li	      4.25111      4.26362      4.31687        -0.028747     -0.046834     -0.007815
Li	      6.43708      4.24486      6.20908         0.049121     -0.019583      0.007857
Li	      2.12672      6.37410      4.46226        -0.031037      0.015620     -0.059787
Li	      2.15592      4.45415      6.19701        -0.009482     -0.047037     -0.013261
Li	      4.04318      6.33792      6.28277         0.025518      0.023893      0.008254
Sc	      4.28438      2.12906      6.18797        -0.019318     -0.315169     -0.025781
Sc	      4.28017      4.36009      8.32767        -0.180379      0.120102     -0.004845
Ti	      4.33671      6.16995      2.07941         0.269867     -0.379958     -0.168838
Mn	      4.23444      8.52746      4.38008         0.036734      0.071834      0.044262
Mn	      4.28133      8.47077      8.27833        -0.041621     -0.011010      0.017111
V	      6.52706      2.17402      4.25189        -0.053693      0.024978      0.011663
V	      8.54373      4.22821      8.38467         0.083875     -0.163854      0.347688
Cr	      6.44628      6.38230      8.39050         0.013745      0.133275     -0.010521
Fe	      6.32606      6.21019      4.30326         0.184440      0.152194     -0.046233
O	      2.00868      2.11973      2.16818        -0.486718     -0.162424      0.010919
O	      4.17097      4.29236      2.12149        -0.008732      0.546951      0.044615
O	      4.34559      2.11358      4.14555         0.008107      0.019968     -0.018042
O	      6.44836      4.22114      4.19220         0.015927     -0.120711     -0.001232
O	      6.41657      2.14104      6.42599        -0.003853     -0.039815      0.279565
O	      8.53540      4.27377      6.51025        -0.071730      0.148255     -0.774610
O	      2.05305      4.06594      4.09393        -0.064450     -0.070985      0.449202
O	      4.33308      6.33557      4.04236        -0.121718     -0.038570     -0.149382
O	      4.31083      4.16057      6.33893         0.009628      0.153362      0.028902
O	      6.49732      6.29920      6.28055        -0.003280      0.016854      0.128393
O	      6.44931      4.28941      8.53039        -0.031082     -0.169630      0.013378
O	      8.61866      6.34523      8.38765         0.187875      0.237488      0.023020
O	      2.13943      6.34987      6.33328         0.023959     -0.002094     -0.021273
O	      4.26636      8.48958      6.27112         0.011134     -0.004726     -0.103729
O	      4.47181      6.37799      8.35171         0.079819     -0.008807     -0.007936
O	      6.48412      8.38830      8.47088         0.050587     -0.055831     -0.018040
O	      6.44875      6.48946     10.39211         0.014099     -0.056541     -0.028792
O	      8.52528      8.52493     10.48063         0.051305     -0.016385     -0.009130
