# total energy = -245.97635853 eV
 
CRYSTAL
PRIMVEC
0.027725 6.202172 6.490460 
6.466106 -0.019267 6.538075 
4.282228 4.137605 0.015945 
PRIMCOORD
36 1
Li	      6.53612      6.19299     12.84787         0.007470      0.007629     -0.005338
Li	      4.47905      6.09268     10.83025        -0.000372      0.031896     -0.035167
Li	      6.55343      8.18428     10.90273        -0.013850      0.014919      0.031257
Li	      8.49025      4.21397      8.71024        -0.017949     -0.028637     -0.032368
Li	      6.35459      4.17948      6.62997        -0.031073      0.029399      0.014906
Li	      8.48307      6.20716     10.79004        -0.027335      0.004350     -0.086418
Li	      4.35187      6.10765      6.55934         0.017546      0.038628      0.069765
Li	      4.37559      4.09781      8.67095        -0.008920      0.068703     -0.039422
Li	      6.60595      6.09299      8.72444         0.018123      0.063164      0.024841
Sc	      6.35983      2.11431      8.65236         0.017757      0.000385     -0.051319
Sc	      6.46111      6.19744      4.46719         0.034604     -0.102999     -0.024636
Ti	      4.42750      8.19295      8.59975         0.139086     -0.247011      0.022832
Mn	      8.59645      6.12607      6.58848         0.039906     -0.066375     -0.078476
Mn	      6.46384      4.19632     10.81892         0.016651      0.087847      0.004750
V	      8.55714      2.13609      6.48597         0.022488      0.092027      0.120140
V	      2.20069      6.19676      8.65807         0.034944     -0.100142      0.114374
Cr	      4.28196      4.16596      4.37623         0.054096     -0.064000     -0.060727
Ni	      2.21655      4.16141      6.49342        -0.066430      0.055119      0.033455
O	      2.22240      2.08184      2.14241         0.007140      0.004175      0.007600
O	      4.38502      4.07494      2.30304        -0.069881     -0.032679      0.052013
O	      4.26643      2.14232      4.18235         0.015641     -0.010238     -0.046060
O	      6.30448      4.13507      4.23205        -0.025320      0.049595      0.011072
O	      6.58241      2.01847      6.55572         0.008222      0.016557     -0.006402
O	      8.60941      3.94253      6.57506         0.033700     -0.061819     -0.025392
O	      2.20688      4.16952      4.41428        -0.035572      0.003818     -0.123766
O	      4.37451      6.26588      4.28051        -0.038213     -0.006998     -0.013153
O	      4.26315      4.13582      6.34836         0.114428      0.058533      0.006707
O	      6.46808      6.20822      6.45708        -0.078298     -0.080823     -0.006125
O	      6.45765      4.10793      8.76389        -0.023548      0.023102     -0.021561
O	      8.67633      6.19064      8.67299        -0.056226      0.030431      0.097175
O	      2.17122      6.33562      6.69025        -0.036535      0.045264     -0.073895
O	      4.24785      8.28479      6.64702        -0.027110     -0.021180      0.112121
O	      4.19589      6.30614      8.73489         0.113122      0.197674     -0.014420
O	      6.31964      8.25726      8.59049        -0.158620     -0.031870      0.131765
O	      6.47515      6.04164     10.86543         0.004240     -0.056830     -0.016452
O	      8.69574      8.21677     11.09388         0.016087     -0.011614     -0.093675
