# total energy = -253.60493816 eV
 
CRYSTAL
PRIMVEC
0.059447 6.436038 6.301233 
6.529114 0.046783 6.314300 
4.353228 4.300400 0.029473 
PRIMCOORD
36 1
Li	      4.33901      4.23892      0.11489         0.020036     -0.005616     -0.013301
Li	      2.28286      6.46383      8.40970         0.011740      0.014758      0.027170
Li	      4.31023      2.17752      2.08463        -0.030638     -0.003745     -0.001476
Li	      4.30925      0.13976      4.19783        -0.040910      0.016282     -0.027224
Li	      2.24627      4.27132      2.10186        -0.004164      0.002483     -0.016241
Li	      2.17234      2.16521      4.14493        -0.002243     -0.020476     -0.005652
Li	      8.66869      6.30239      6.33974        -0.069176     -0.008763     -0.022451
Li	      0.21361      4.26662      4.25371         0.070981     -0.003155     -0.016734
Li	      6.42423      8.65378      6.31457        -0.005965      0.043991      0.052836
Sc	      2.27601      2.24169      0.04462         0.056179     -0.004477      0.009277
Sc	      4.29899      4.29299      4.17297         0.011923     -0.000658      0.048814
Ti	      6.39370      2.11235      4.20293        -0.192218     -0.054404     -0.017560
Mn	      2.18356      6.41134      4.25419         0.058569      0.028701      0.005728
Mn	      6.57293      6.45104      8.41938         0.009781     -0.066331     -0.012267
V	      0.07543      2.11016      2.09584         0.002390      0.078678      0.016411
V	      4.43551      6.50407      6.31809         0.023110     -0.002799     -0.023677
Cr	      6.57499      4.34436      6.28594        -0.006585     -0.018940      0.039756
Cr	      4.38988      4.34165      8.42553         0.075664     -0.035432     -0.052033
O	      2.05593      2.17967      2.08491         0.052092     -0.010810      0.012311
O	      4.34310      4.43499      2.13156        -0.016480     -0.060728      0.006786
O	      4.49980      2.20771      4.17394         0.233672     -0.011485     -0.022317
O	      6.48134      4.14615      4.29356        -0.023857     -0.068977     -0.025947
O	      6.58820      2.26966      6.26031        -0.004774      0.023000     -0.089985
O	      8.57185      4.32036      6.31596        -0.005895     -0.041658     -0.016260
O	      2.23579      4.47459      4.23042         0.025594      0.043370     -0.010050
O	      4.45192      6.41476      4.22887        -0.023091     -0.028110      0.019292
O	      4.48739      4.40257      6.36898         0.039574     -0.012242     -0.001470
O	      6.49273      6.36383      6.28530         0.054594     -0.013626      0.014651
O	      6.43579      4.24141      8.34353        -0.042977     -0.013907     -0.033365
O	      8.83564      6.58220      8.52550         0.009904      0.018276      0.088496
O	      2.38586      6.50302      6.22114        -0.124984     -0.000484     -0.040793
O	      4.38403      8.51583      6.35073        -0.003260      0.088092     -0.001940
O	      4.40725      6.34280      8.36322        -0.080781     -0.022251      0.023242
O	      6.71152      8.62932      8.57093        -0.029937      0.024514      0.107783
O	      6.53521      6.62894     10.59464         0.022808      0.186707     -0.004381
O	      8.64529      8.48815     10.49568        -0.070676     -0.059776     -0.017426
