# total energy = -241.86221191 eV
 
CRYSTAL
PRIMVEC
0.007138 6.360638 6.365161 
6.371697 -0.017004 6.388973 
4.237129 4.245828 -0.000568 
PRIMCOORD
36 1
Li	      4.25531      4.23414      0.20331         0.095522      0.041363     -0.009732
Li	      4.13681      2.32247      2.15537         0.008078     -0.041688      0.023703
Li	      8.46121      4.25311      4.26034        -0.044536      0.052923      0.003176
Li	      4.36968      6.19623      2.24805         0.078247      0.016335     -0.007625
Li	      2.34260      4.10596      2.18972        -0.026553      0.049361      0.015859
Li	      1.95368      2.24334      4.08580        -0.013663     -0.049682     -0.048871
Li	      4.22065      4.29657      4.08770         0.056868     -0.001373      0.045570
Li	      4.40079      8.31518      4.29395         0.004066      0.010853     -0.003125
Li	      4.27889      6.40492      6.22857        -0.051763      0.052397     -0.058274
Sc	      2.27927      8.49717      6.45974        -0.005280     -0.076044      0.069219
Sc	      2.26371      6.26612      4.20606         0.060709     -0.071232      0.054327
Ti	      6.19476      6.28553      8.51401        -0.146761     -0.131634      0.058584
V	      6.25026      2.13258      4.27948        -0.348366      0.132638      0.170807
V	      6.38454      4.29352      6.30935         0.169355     -0.183079     -0.163942
Cr	      6.30209      8.49118      6.34240        -0.045390      0.003278     -0.052862
Cr	      8.46731      8.45096      8.50896        -0.063140      0.009229      0.037626
Co	      6.23213      4.32651      2.16238         0.035663      0.070272      0.031654
Cu	      8.53436      6.28668      6.43290         0.061136     -0.171900     -0.206661
O	      2.15872      2.12100      2.07891        -0.040961     -0.107335     -0.041066
O	      4.27122      4.25285      2.12858         0.677420      0.062491     -0.005719
O	      4.45798      2.05849      4.32456         0.258500      0.039150     -0.128986
O	      6.35824      4.11336      4.34474        -0.055640      0.025330      0.101883
O	      6.51133      2.21013      6.21141         0.275811      0.041392      0.033002
O	      8.34267      4.28938      6.39388        -0.294093     -0.035248      0.067493
O	      2.14054      4.23183      4.37945         0.001746      0.059311      0.014388
O	      4.20730      6.38504      4.20980        -0.111990     -0.010502     -0.014731
O	      4.25521      4.10800      6.50028         0.099121      0.200832      0.051854
O	      6.25763      6.43930      6.53160        -0.232869     -0.057940      0.159214
O	      6.25340      4.36715      8.40989        -0.081323      0.139644     -0.079642
O	      8.33987      6.42509      8.46616        -0.143373      0.009520      0.215259
O	      2.15553      6.31182      6.32759        -0.016682     -0.061971     -0.005990
O	      4.31113      8.52702      6.34543         0.007183      0.032588     -0.003218
O	      4.29468      6.23296      8.54864        -0.051233      0.016443     -0.014504
O	      6.42095      8.41995      8.50819        -0.050193      0.017618     -0.094101
O	      6.39284      6.47297     10.43757        -0.047185     -0.075871     -0.174687
O	      8.33064      8.43193     10.55018        -0.018432     -0.007467     -0.039881
