# total energy = -242.17314482 eV
 
CRYSTAL
PRIMVEC
0.011227 6.401180 6.290663 
6.390926 0.013215 6.288531 
4.274400 4.279790 -0.004832 
PRIMCOORD
36 1
Li	      4.43630     10.61329      6.38767        -0.021287     -0.044264     -0.044780
Li	      2.17655      2.03698      0.13927         0.053759     -0.002274     -0.011637
Li	      1.98819      0.09454      1.96647        -0.010791      0.001020      0.044884
Li	      2.22349      4.23027      2.27404         0.003264     -0.013642     -0.091557
Li	      2.03285      2.39934      4.07150         0.016965     -0.023343     -0.021480
Li	      4.05645      4.32941      4.04149         0.024724     -0.000680     -0.003651
Li	      0.24848      4.22278      4.17909        -0.047280     -0.001517     -0.034986
Li	      2.14488      6.20353      4.24088        -0.014630      0.049707      0.010413
Li	      6.46190      6.40237      8.38855        -0.007800      0.008143      0.037198
Sc	      4.29606      6.41850     10.48088         0.133250      0.081899      0.002331
Sc	      4.18419      6.48962      6.14793        -0.054975      0.085243      0.043741
Ti	      8.55175      8.51668      8.41358         0.062511      0.067106      0.158344
V	      6.43213      8.50043     10.44799        -0.156100     -0.220452     -0.019928
V	      6.40997      4.31019      6.31895         0.051428      0.007689      0.010543
Cr	      4.35682      6.32292      2.17046         0.074520     -0.119165     -0.084385
Cr	      8.50622      6.42666      6.28736        -0.036451     -0.059146     -0.114226
Co	      4.08541      2.34980      2.04551         0.051657     -0.041958      0.039600
Ni	      2.06150      4.35355      6.17883        -0.044900     -0.037062      0.128616
O	      2.07189      2.11679      2.11261         0.080561      0.071076     -0.024216
O	      4.27686      4.35426      2.08519        -0.048857     -0.015620      0.012218
O	      4.40463      2.11636      4.20814        -0.053182      0.039203     -0.018501
O	      6.46633      4.02530      4.32298         0.014774     -0.028730     -0.087015
O	      6.28371      2.24171      6.28219        -0.061982      0.002749      0.008333
O	      8.45492      4.43408      6.24436        -0.061905      0.070829     -0.005949
O	      2.13255      4.28668      4.22709        -0.018664     -0.035174     -0.114880
O	      4.29795      6.40133      4.13857        -0.002649      0.021804     -0.029417
O	      4.25393      4.21928      6.39190         0.105038     -0.023872      0.070277
O	      6.47440      6.30330      6.29452         0.070047      0.008533     -0.016747
O	      6.26780      4.17812      8.33758        -0.117622     -0.094116      0.032713
O	      8.60575      6.54117      8.29267         0.084057      0.096135     -0.007966
O	      2.20658      6.37892      6.27674         0.061725      0.078288      0.067329
O	      4.30283      8.51670      6.34550        -0.149925      0.048649      0.246433
O	      4.34562      6.21495      8.37218        -0.025426     -0.198594      0.019035
O	      6.52410      8.52331      8.48462         0.124854      0.020195     -0.043449
O	      6.38801      6.65415     10.51322        -0.073027      0.167319      0.008099
O	      8.45699      8.58852     10.36484        -0.005684      0.034022     -0.165337
