# total energy = -245.66241038 eV
 
CRYSTAL
PRIMVEC
0.019167 6.306751 6.362979 
6.276553 0.033434 6.348831 
4.224673 4.235103 -0.017877 
PRIMCOORD
36 1
Li	      6.29276      4.20665      2.17303        -0.009758     -0.002978     -0.042655
Li	      6.26619      2.19341      4.17383         0.034026     -0.019384     -0.020127
Li	      4.26710      6.33661      2.26074         0.063783     -0.011255      0.004738
Li	      6.19399      6.34695      4.34223         0.048775      0.048856      0.023095
Li	      6.23089      4.38541      6.28863         0.023230      0.036827     -0.044774
Li	      4.28970      8.25408      4.21648         0.002733     -0.072346      0.017735
Li	      2.28651      6.26939      4.23248         0.040231     -0.016742      0.023793
Li	      6.31778      8.36503      6.29206         0.022651      0.011869     -0.018734
Li	      4.38044      6.30308      6.19919         0.025170      0.016721      0.008282
Sc	      8.37869      8.43856     12.64365        -0.095941     -0.131877      0.129256
Sc	      4.17172      4.24023      8.41746        -0.164814     -0.089300      0.024852
Ti	      6.37007      6.33955     12.55717         0.413135      0.140716     -0.302551
V	      8.26583      4.31381      4.22911        -0.003388     -0.031361     -0.082408
V	      8.33663      4.31917      8.57929        -0.368131     -0.225322      0.074259
Cr	      4.27473      8.44054      8.47428        -0.129033     -0.079091     -0.058200
Cr	      4.26330      4.29392      4.27581         0.064314      0.000726      0.054943
Co	      6.29528      6.32866      8.37663         0.015112      0.022131      0.072983
Co	      4.12960      2.17229      6.31092         0.029918     -0.016887      0.184907
O	      2.20543      2.36102      2.03677         0.029153     -0.439545     -0.007967
O	      4.15719      4.15509      2.15835        -0.124148      0.036861     -0.134957
O	      4.21804      2.10409      4.11791        -0.011753      0.101176      0.074896
O	      6.30557      4.25483      4.22582        -0.071490     -0.023698      0.027115
O	      6.28059      1.95648      6.38525        -0.047021     -0.144898     -0.100696
O	      8.45547      4.25926      6.38122         0.033388      0.055057      0.076734
O	      2.22357      4.23614      4.10187        -0.078413      0.027481      0.023045
O	      4.23412      6.22612      4.24456         0.052770      0.012763      0.009208
O	      4.22987      4.21143      6.31896         0.016943      0.051421     -0.026243
O	      6.37666      6.35139      6.39725         0.045235      0.037727     -0.065677
O	      6.35913      4.24692      8.52274         0.466212      0.004347     -0.088629
O	      8.45332      6.22827      8.46874         0.024108      0.581172      0.054130
O	      1.96138      6.35733      6.35899        -0.379591     -0.024699     -0.079974
O	      4.20563      8.55045      6.43877        -0.000379      0.093827     -0.027257
O	      4.13997      6.37937      8.52410         0.046894      0.014343     -0.020451
O	      6.31001      8.38953      8.48148        -0.022637      0.046875     -0.021978
O	      6.17085      6.31307     10.70173         0.005884      0.005261      0.285071
O	      8.40608      8.57972     10.55648         0.002832     -0.016775     -0.025761
