# total energy = -241.28002573 eV
 
CRYSTAL
PRIMVEC
0.001834 6.299026 6.384989 
6.272690 0.005215 6.381217 
4.183405 4.198728 0.001764 
PRIMCOORD
36 1
Li	      6.30274     10.47622      8.52837         0.004010      0.007400      0.010889
Li	      4.26795      6.19877     10.59388        -0.043458      0.022396     -0.001555
Li	      6.37322      8.34155     10.67328        -0.022781      0.017424     -0.025427
Li	      6.26549      2.09675      8.46680         0.003461     -0.019797     -0.034584
Li	      4.20285      2.21094      6.33331         0.005298      0.017896     -0.034307
Li	      6.26117      4.09485      6.40748        -0.044364      0.006422     -0.014261
Li	      6.18490      4.31610     10.58367         0.018703      0.009636      0.033562
Li	      8.28755      6.39555     10.59828         0.027672      0.013108      0.024698
Li	      6.29154      6.29703      8.74349        -0.012560      0.038943      0.029483
Sc	      6.27097      6.38175     12.61916        -0.007391     -0.001604     -0.001408
Sc	      4.29608      8.37357      8.58759         0.049398      0.026457      0.036810
Ti	      8.22342      4.36109      8.50639        -0.118277      0.162599      0.020197
V	      4.19246      6.25335      6.38877        -0.032501      0.047323     -0.049736
V	      6.25462      6.18842      4.27038         0.075837      0.002493     -0.041898
Cr	      8.32684      8.42234     12.69875         0.089511     -0.055513     -0.006453
Cr	      8.37893      8.37311      8.59360         0.021091     -0.034430      0.013699
Cu	      4.19559      4.20217      4.23442         0.059273     -0.003423     -0.015817
Ni	      2.13134      4.19751      6.37489        -0.032012      0.028127     -0.035744
O	      2.11573      2.17323      2.12537        -0.016045      0.042603     -0.030132
O	      4.04222      4.15011      2.03413        -0.060024      0.031422     -0.109130
O	      4.07394      2.17237      4.24928        -0.010947     -0.150926      0.023206
O	      6.24879      4.39308      4.20050         0.117718     -0.041169     -0.028569
O	      6.37678      2.10301      6.35997        -0.030099      0.004916     -0.003255
O	      8.34082      4.13344      6.52785        -0.016606     -0.007257      0.069968
O	      2.10913      4.05131      4.14921        -0.159829     -0.028049     -0.113397
O	      4.25180      6.18696      4.38223        -0.062045      0.108678      0.082524
O	      4.15807      4.22243      6.58767         0.143872     -0.076933      0.074198
O	      6.19003      6.37217      6.19839         0.048729     -0.150226      0.018676
O	      6.32374      4.20327      8.54498         0.131323      0.007528      0.001844
O	      8.35992      6.24438      8.53751        -0.018412     -0.189621      0.013474
O	      2.15539      6.34642      6.35814        -0.028750      0.117769      0.001725
O	      4.15866      8.36700      6.42104        -0.112737      0.020726     -0.005886
O	      4.20887      6.23009      8.41882         0.044230      0.023109     -0.028422
O	      6.34510      8.41356      8.47761        -0.006817     -0.012147      0.094629
O	      6.24600      6.31017     10.68204        -0.003572      0.008292      0.024466
O	      8.37852      8.41404     10.66217        -0.000897      0.005829      0.005936
