# total energy = -247.00085011 eV
 
CRYSTAL
PRIMVEC
-0.015201 6.459083 6.355832 
6.393801 0.005118 6.335944 
4.259723 4.289500 0.006305 
PRIMCOORD
36 1
Li	      6.45475      4.23178      2.27282         0.003836     -0.026201     -0.038440
Li	      4.34763      2.06470      2.28254         0.004928      0.013380     -0.053978
Li	      4.11506      0.14533      4.16974        -0.038118      0.042360      0.029298
Li	      6.16864      2.38014      4.17352        -0.018148      0.055412      0.043574
Li	      4.43092      4.11845      4.29819        -0.036567      0.004126     -0.052941
Li	      4.17381      2.21648      6.15991        -0.005132     -0.004011     -0.020123
Li	      6.31607      4.38705      6.15129        -0.008320      0.023155     -0.004262
Li	      6.40439      8.49432      6.40588        -0.005129      0.000059      0.036879
Li	      4.37722      6.41313      6.40203         0.028671     -0.017256      0.037964
Sc	      8.47547      4.31123      8.41020         0.062885     -0.125346     -0.027353
Sc	      2.20785      6.41515      4.29615         0.025403      0.010251      0.007651
Ti	      6.39838      0.04529      6.35029        -0.069101      0.117680      0.147138
V	      2.12010      8.59087      6.37435        -0.011006      0.041446     -0.066347
V	      4.15387      4.41974      8.30798         0.015036     -0.047406      0.017947
Cr	      6.45655      6.35602      4.31280         0.010461      0.113343     -0.117011
Cr	      4.25430      8.59295      4.28443         0.033617      0.034806     -0.019408
Fe	      6.32540      6.51869      8.30239        -0.142158      0.116745      0.168595
Co	      4.25389      6.41008      2.10859         0.072633      0.027342     -0.080972
O	      2.08559      2.20337      2.04405        -0.112427      0.083403      0.281064
O	      4.17815      4.30587      1.95429        -0.078893      0.136082     -0.194074
O	      4.14636      2.17713      4.21556        -0.052485     -0.016334     -0.042134
O	      6.34885      4.42373      4.24268        -0.019521      0.016803     -0.029442
O	      6.50823      2.01277      6.29615        -0.064235     -0.197995      0.031991
O	      8.66087      4.24871      6.36005         0.040153     -0.153391     -0.046647
O	      2.04663      4.29351      4.20402        -0.035171     -0.038526     -0.002896
O	      4.29397      6.55582      4.25141         0.024180     -0.022191      0.034150
O	      4.28820      4.27723      6.55801        -0.012133      0.000036      0.012076
O	      6.38620      6.45781      6.29714         0.021263     -0.010328     -0.058205
O	      6.32927      4.29007      8.57603         0.005013     -0.121217      0.023403
O	      8.53592      6.46637      8.52843         0.092457     -0.010278      0.017835
O	      1.97311      6.48364      6.34420        -0.027597      0.155291      0.012045
O	      4.15285      8.72033      6.29475         0.079235      0.048400     -0.033913
O	      4.24336      6.29541      8.46145         0.050931      0.000080      0.050096
O	      6.54469      8.60247      8.53547         0.018926     -0.052516      0.028702
O	      6.46334      6.33070     10.67028         0.041386     -0.083927      0.059905
O	      8.63636      8.53176     10.62397         0.105126     -0.113277     -0.152167
