# total energy = -102.73358743 eV
 
CRYSTAL
PRIMVEC
-0.001727 2.101699 2.108330 
6.194549 0.041613 -2.155308 
-2.026648 6.407983 -4.315902 
PRIMCOORD
16 1
Li	      0.12997      2.27386      1.91786         0.036558      0.016308      0.010055
Li	      1.96674      2.27120     -0.16758        -0.015258     -0.029039      0.040514
Li	      2.01863      4.09000     -1.96679        -0.009052      0.003141     -0.030697
Li	      0.05251      6.39127     -2.20856         0.002251      0.016080      0.002353
Ti	      4.27051      4.30147     -4.31628         0.301911      0.042901     -0.048789
Ti	      1.91929      6.44657     -4.36745        -0.630535     -0.022738      0.034294
Ni	      4.09361      2.13599     -2.13517        -0.015610     -0.001491     -0.008166
Ni	      0.11889      4.17200      0.04137         0.026271      0.063795     -0.053839
O	      4.10062      4.37733     -2.28063        -0.048432      0.112145     -0.105836
O	      4.18401      2.04714      0.05291        -0.019839     -0.131253      0.134184
O	      2.15747      6.56150     -2.37484         0.036531      0.076860     -0.062735
O	      2.12611      2.16316     -2.15380        -0.006036     -0.012841     -0.001778
O	      4.14584      6.26889     -4.17347        -0.016787     -0.103685      0.096037
O	      0.13603      6.37105     -4.29284         0.603412      0.036646     -0.022603
O	     -0.07766      4.24729     -2.13595        -0.349717      0.047435     -0.070524
O	     -0.10927      2.16133     -0.05511         0.104333     -0.114266      0.087529
