# total energy = -243.85160382 eV
 
CRYSTAL
PRIMVEC
0.019548 6.336640 6.491641 
6.268442 0.039896 6.470684 
4.212937 4.245406 -0.007924 
PRIMCOORD
36 1
Li	      4.20421      4.19684      0.09041         0.032958     -0.031326      0.066464
Li	      6.32151      4.15012      2.32546        -0.027388     -0.004024      0.000770
Li	      4.27668      8.50637      8.66619         0.006709      0.057346     -0.023605
Li	      3.99973      0.16896      4.21070         0.052528     -0.059480     -0.065546
Li	      6.45811      6.13266      4.33493         0.003145     -0.025623     -0.014855
Li	      4.32771      4.15742      4.35043        -0.034828     -0.043552     -0.004172
Li	      6.24779      4.31587      6.28905        -0.007155     -0.013652     -0.048490
Li	      6.35883      8.42344      6.66321        -0.012748      0.007186      0.059049
Li	      6.27272      6.48351      8.56893        -0.020008      0.000318     -0.041762
Sc	      0.04813      2.04469      2.12916         0.078199     -0.022184      0.018971
Sc	      6.22367      4.35624     10.79542        -0.051190     -0.046577      0.005265
Ti	      2.08272      6.30325      4.41563         0.049639     -0.055882      0.262534
V	      8.37860      2.24050      6.48646         0.047073     -0.026173      0.048379
V	      4.33875      6.30307      6.56002        -0.055931     -0.015616      0.067863
Cr	      6.23654      2.22537      4.26002        -0.011107      0.016223     -0.036171
Cr	      4.11946      2.18301      6.40923        -0.049825      0.005152     -0.017393
Fe	      2.16395      4.20583      2.13743        -0.124734      0.025860      0.049836
Cu	      4.10968      4.34067      8.55706         0.099979     -0.006007      0.007025
O	      2.09763      2.20607      2.10133        -0.044536     -0.063516      0.000330
O	      4.11147      4.27688      2.15418         0.116871      0.035402      0.026900
O	      4.26441      2.10215      4.45687        -0.004150     -0.026349      0.015600
O	      6.31427      4.16215      4.28664        -0.011783     -0.050671      0.012807
O	      6.28133      2.12821      6.45504        -0.013719     -0.014950      0.007427
O	      8.37084      4.26308      6.59712         0.003380      0.031780     -0.029851
O	      2.04531      4.42619      4.22547        -0.014000      0.225875     -0.024351
O	      4.08939      6.42389      4.32018        -0.134245      0.046887     -0.016473
O	      4.16476      4.18115      6.40564         0.032920     -0.053623     -0.173080
O	      6.30805      6.38047      6.41310         0.076259      0.011206     -0.005753
O	      6.30058      4.21004      8.73399         0.059448      0.044531      0.000914
O	      8.39465      6.35016      8.64499        -0.000893     -0.032838     -0.035751
O	      2.21541      6.42762      6.32349        -0.051732     -0.013246     -0.268426
O	      4.14277      8.42263      6.41892        -0.004120      0.063940     -0.035002
O	      4.21309      6.31391      8.42863        -0.010806      0.089785     -0.015121
O	      6.34811      8.49040      8.78701        -0.080983     -0.042664      0.027454
O	      6.42772      6.42518     10.82588         0.117308      0.033696     -0.012579
O	      8.34412      8.43108     10.90102        -0.010537     -0.047233      0.190793
