# total energy = -245.41037562 eV
 
CRYSTAL
PRIMVEC
-0.029815 6.414884 6.150127 
6.423613 -0.032840 6.153030 
4.265623 4.261722 -0.004778 
PRIMCOORD
36 1
Li	      0.11467      6.45485      6.13332        -0.027339      0.031889      0.002758
Li	      2.03430      8.43520      6.12678         0.007782     -0.010479      0.013204
Li	      8.39992      4.15190      4.11918         0.049665     -0.022431      0.007255
Li	      6.53149      2.25532      4.09076         0.041229     -0.026081     -0.008296
Li	      6.33143      6.23877      4.12837         0.002980      0.034895      0.010678
Li	      4.43083      4.32157      4.12647         0.000369     -0.022412     -0.036907
Li	      2.19333      4.41046      6.13860         0.039493     -0.046660      0.013350
Li	      4.16132      6.24952      6.16802         0.011110     -0.008995     -0.005302
Li	      4.25966      4.29974      8.17681         0.045049     -0.012257      0.023061
Sc	      2.16819      4.18840      2.03294         0.022516     -0.016973     -0.023429
Sc	      4.27299      2.19387      6.04904         0.002215     -0.005713     -0.107728
Ti	      4.17855      8.53538      4.33785        -0.096325     -0.023725      0.213997
V	      4.29288      2.09055      2.14763        -0.007207      0.058633     -0.005482
V	      6.32693      6.42316      8.18737        -0.001361     -0.002349      0.002434
Cr	      6.37992      4.25772      6.06182         0.004569     -0.029082      0.049986
Cr	      2.10825      6.42120      4.18340         0.004870      0.024016     -0.054153
Fe	      0.05505      2.09709      2.03188        -0.044423      0.015147      0.010818
Ni	      2.13716      6.37487      8.18262         0.011723     -0.031806      0.012251
O	      2.24409      2.10078      2.04864         0.055931      0.060571      0.004324
O	      4.27383      4.15406      2.03350        -0.054883     -0.054158      0.006645
O	      4.25272      2.14711      3.95352        -0.028149      0.013504     -0.023611
O	      6.41354      4.24025      4.08932        -0.008029      0.018155      0.129839
O	      6.37175      2.20488      6.17923        -0.011170     -0.002836     -0.140810
O	      8.43103      4.32731      6.14265         0.000144     -0.028629      0.040852
O	      1.93668      4.37065      4.11215        -0.027579     -0.013712     -0.015338
O	      4.16915      6.55233      4.04746        -0.008334      0.055177      0.158270
O	      4.36011      4.22349      6.13013        -0.016466     -0.009461      0.009401
O	      6.44107      6.28577      6.19791        -0.005897      0.004990     -0.057226
O	      6.43147      4.31727      8.18479        -0.000644     -0.029845      0.010852
O	      8.46507      6.33598      8.23232         0.012417      0.011813      0.005391
O	      2.11698      6.40290      6.12970         0.008600      0.014340     -0.096104
O	      4.22113      8.56102      6.17864        -0.021504      0.021859     -0.259255
O	      4.29093      6.55114      8.19440        -0.019526     -0.015494      0.012681
O	      6.23017      8.45648      8.19138        -0.025305      0.069900     -0.001841
O	      6.48877      6.23335     10.20291        -0.014333     -0.035179      0.084306
O	      8.68497      8.42939     10.24738         0.097811      0.013389      0.013129
