# total energy = -247.12110759 eV
 
CRYSTAL
PRIMVEC
0.007282 6.325830 6.404538 
6.271457 -0.005333 6.417267 
4.192225 4.237041 -0.014976 
PRIMCOORD
36 1
Li	      2.17977      8.37522      6.51723        -0.050200      0.014204     -0.000529
Li	      2.01300      0.13503      2.10955         0.023886     -0.012443     -0.007579
Li	      4.00307      2.20373      2.08861        -0.016618     -0.006760     -0.032147
Li	      2.19463      4.10194      2.29763        -0.014439      0.052062      0.016609
Li	      2.04914      2.30134      4.16282         0.002845     -0.014701     -0.074052
Li	      6.25456      4.21345      6.39891         0.012408     -0.035189     -0.003903
Li	      0.19011      4.14163      4.31224         0.023793     -0.034646      0.013460
Li	      2.17918      6.17564      4.33781         0.093749      0.025565      0.022171
Li	      2.12519      4.22596      6.20625         0.031705      0.009015     -0.000835
Sc	      4.32327     10.40881      6.43863        -0.046549      0.011510     -0.185184
Sc	      8.23170      4.24588      4.28632        -0.069073      0.068204      0.113896
Ti	      6.32956      6.26591      8.51717         0.035728      0.048814     -0.118834
V	      6.25925      2.12823      4.27755        -0.061697      0.055148      0.147124
V	      0.11601      2.11773      2.19630        -0.066937     -0.220231     -0.353213
Cr	      4.15490      2.14732      6.39055         0.101736      0.035536     -0.004510
Cr	      4.13970      6.37537      6.31785         0.121431     -0.096270     -0.121415
Cr	      8.36706      8.45990      8.54169         0.013761     -0.061706     -0.080840
Cu	      4.10971      4.25691      4.21166         0.154343      0.088844      0.096826
O	      1.98242      2.14246      2.12517         0.209363      0.006311      0.049722
O	      4.20969      4.31970      2.01847        -0.078480      0.355505     -0.130220
O	      4.18907      2.11964      4.37799         0.072810     -0.140511      0.027988
O	      6.19900      4.12701      4.25100         0.139452     -0.095511     -0.051311
O	      6.17664      2.08989      6.42125        -0.026997     -0.051822     -0.355890
O	      8.41653      4.36773      6.30516        -0.037705      0.008614     -0.067106
O	      2.19031      4.23194      4.25623        -0.110603      0.011441     -0.017437
O	      4.19253      6.31888      4.26778         0.069007      0.001164      0.582578
O	      4.19398      4.22612      6.57570        -0.038909     -0.003582      0.199612
O	      6.28410      6.32352      6.58205        -0.020551     -0.009506      0.259649
O	      6.22344      4.29555      8.60039        -0.107905     -0.114812      0.027009
O	      8.35152      6.41675      8.43581        -0.159456      0.058419      0.031403
O	      2.17598      6.33161      6.39479        -0.108654     -0.011694      0.040094
O	      4.19351      8.37070      6.39191         0.051667      0.074078     -0.011324
O	      4.29950      6.26695      8.47241         0.046058     -0.000078      0.082681
O	      6.36136      8.25469      8.65688        -0.073617     -0.107656     -0.022839
O	      6.23352      6.37550     10.58664        -0.017976      0.044263     -0.074784
O	      8.27442      8.51163     10.56065        -0.097373      0.048423      0.003129
