# total energy = -251.28313041 eV
 
CRYSTAL
PRIMVEC
0.015321 6.288866 6.383644 
6.322816 0.019705 6.379175 
4.226182 4.200675 0.002290 
PRIMCOORD
36 1
Li	      6.31400      0.14166      6.32617        -0.014207      0.021886     -0.042123
Li	      4.25303      8.39512      8.48991        -0.000259     -0.005299      0.017992
Li	      6.31141      2.08480      4.39995        -0.065524     -0.008146      0.043643
Li	      6.25164      2.13561      8.37216         0.006845     -0.019084     -0.057558
Li	      4.35124      2.12611      6.44074         0.070505     -0.030334     -0.006749
Li	      6.31740      4.10853      6.41497         0.023396     -0.035297      0.018053
Li	      8.41300      6.34673     10.64791        -0.043228      0.014442      0.004509
Li	      4.26666      6.27364      6.40449         0.023187     -0.000643      0.005707
Li	      6.35064      6.32503      8.44750        -0.003958      0.013637     -0.050593
Sc	      2.08565      6.34435      8.41037        -0.027832      0.006564     -0.011434
Sc	      8.45426      4.28635      4.36020         0.001592      0.030056     -0.009254
Ti	     10.54767      8.42689     10.65866        -0.177995      0.177536      0.053749
V	      8.45971      4.32461      8.43378         0.001862     -0.052967     -0.087172
V	      6.32762      6.31099      4.32791         0.067585     -0.077743     -0.103950
Cr	      4.25000      4.21022      4.30628         0.013825      0.004845     -0.023247
Cr	      6.33125      8.38455      6.40241        -0.074690      0.062805      0.031326
Cr	      4.26333      4.13435      8.44300        -0.024330      0.001449      0.060042
Fe	      8.29950      2.09942      6.40944         0.281780     -0.028780      0.011574
O	      2.16199      2.19307      2.21509         0.021620     -0.046560      0.093942
O	      4.16772      4.20409      2.29525         0.076017     -0.002413      0.020231
O	      4.14630      2.16932      4.24138         0.058316      0.031293      0.015022
O	      6.26386      4.23048      4.23105        -0.004992     -0.046243      0.038753
O	      6.38593      2.10283      6.33678        -0.259420      0.049525      0.043555
O	      8.45063      4.23082      6.40237         0.019959      0.085741      0.032479
O	      2.13050      4.20869      4.28592        -0.021848      0.039885      0.021595
O	      4.33561      6.27858      4.25950        -0.080135      0.066834     -0.005496
O	      4.12636      4.20282      6.38478         0.034583      0.028607      0.000417
O	      6.32018      6.40658      6.25515         0.008343      0.008524      0.111727
O	      6.36315      4.18239      8.62728        -0.119587      0.021715      0.063795
O	      8.44252      6.29759      8.52613        -0.009074      0.111765     -0.033747
O	      2.09528      6.21633      6.40143        -0.008926     -0.138780     -0.006379
O	      4.25213      8.34599      6.21929         0.098329      0.000661     -0.142772
O	      4.16481      6.18534      8.59559         0.037233     -0.018892     -0.035543
O	      6.45258      8.40716      8.39420        -0.035536     -0.034761      0.008207
O	      6.28614      6.12638     10.63650         0.024105     -0.206141     -0.013692
O	      8.60406      8.38893     10.52115         0.102460     -0.025688     -0.066609
