# total energy = -246.91947176 eV
 
CRYSTAL
PRIMVEC
0.010679 6.310284 6.348695 
6.377056 -0.006775 6.366449 
4.258166 4.225303 -0.011425 
PRIMCOORD
36 1
Li	      6.22228      0.07958      6.14946         0.011647      0.011111      0.009808
Li	      6.41044      4.21787      2.16448         0.010915     -0.005591      0.079322
Li	      4.42542      6.31894     10.70487        -0.038374      0.002325      0.007242
Li	      6.42448      8.20273     10.70187         0.015347      0.069084      0.045847
Li	      8.44801      4.28676      8.31424         0.021365      0.017522      0.006465
Li	      8.53950      6.08937      6.36971        -0.046497     -0.033432      0.026694
Li	      6.57988      4.17077      6.37666         0.006965     -0.027899     -0.038451
Li	      6.30797      4.42926     10.48550        -0.056100     -0.064323     -0.051796
Li	      6.43194      6.20317      8.67621        -0.040687      0.003204     -0.066513
Sc	      6.34104      2.11459      8.40800        -0.071353      0.017214     -0.107237
Sc	      4.36464      4.12586      4.26413         0.119789     -0.046928      0.052282
Ti	      6.32702      8.48584      6.36994         0.045048     -0.027557      0.102393
V	      6.39970      6.29250      4.20705         0.047474     -0.049061     -0.004227
V	      4.26742      6.32176      6.36033         0.047623     -0.036835      0.009444
Cr	      8.48468      2.21707      6.27470        -0.028436     -0.045799     -0.022490
Cr	      4.27252      2.11661      2.14578         0.037610     -0.044349      0.047458
Cr	      8.51391      8.45132      8.55491        -0.068518      0.018207     -0.074842
Ni	      8.35907      6.34156     10.54693         0.149027     -0.077952     -0.031639
O	      2.20552      2.12602      2.11253        -0.004636     -0.004931      0.042459
O	      4.26842      4.15388      2.21776         0.011491      0.007653      0.072581
O	      4.21648      2.08376      4.13910        -0.020879      0.037498     -0.015097
O	      6.36059      4.35723      4.26755        -0.047554      0.040630      0.026746
O	      6.52684      2.08972      6.39850        -0.001666     -0.027022      0.045079
O	      8.52041      4.12381      6.37734         0.042477     -0.050404     -0.041166
O	      2.16437      4.16096      4.40566         0.016756     -0.041077      0.054761
O	      4.29224      6.26310      4.26477         0.035501      0.022912     -0.027177
O	      4.08156      4.23703      6.45765        -0.120947      0.000622     -0.030542
O	      6.29135      6.47877      6.22962         0.011485      0.131013     -0.045319
O	      6.22440      4.16685      8.46762         0.014602     -0.043366     -0.008104
O	      8.54234      6.43097      8.48224         0.011038     -0.040981     -0.108284
O	      2.24272      6.27176      6.27106        -0.046431      0.007932      0.125943
O	      4.29233      8.40908      6.45640         0.059109      0.099020     -0.015945
O	      4.25142      6.33212      8.30424        -0.024472      0.013965      0.109763
O	      6.35253      8.46320      8.31045        -0.004054      0.036036     -0.181153
O	      6.41004      6.30068     10.58366        -0.118262     -0.015243      0.001363
O	      8.51233      8.38617     10.59098         0.023595      0.146799      0.004330
