# total energy = -252.99370800 eV
 
CRYSTAL
PRIMVEC
-0.012530 6.342949 6.370684 
6.400662 0.016954 6.340626 
4.298188 4.239946 -0.020180 
PRIMCOORD
36 1
Li	      4.39128     10.52804      6.48460         0.057867      0.013237      0.006006
Li	      2.26469      8.32397      6.40647        -0.007192     -0.040585      0.015221
Li	      6.39349     10.39928      8.34232        -0.052431     -0.031470     -0.051078
Li	      4.45167      8.47426      8.26143        -0.002200     -0.026591     -0.026689
Li	      6.46496      8.42752     10.42141         0.039395     -0.002712     -0.012334
Li	      4.27469      4.23074      4.19589         0.023704     -0.012930      0.009244
Li	      6.41108      8.57247      6.50087         0.038205      0.039939     -0.018134
Li	      4.10133      6.42962      6.54902        -0.061973     -0.002710      0.044943
Li	      8.34513      8.62496      8.40593        -0.002185      0.048304     -0.026556
Sc	      6.30617      4.20364      6.34164         0.002323     -0.015130     -0.026389
Sc	      4.25512      8.49895      4.41009        -0.027692      0.040811      0.024227
Ti	      2.20213      2.08511      4.19500         0.138386     -0.215360     -0.073603
V	      4.23757      6.33659     10.56143         0.006225     -0.030305      0.074121
V	      2.14637      6.38266      4.35920        -0.005194      0.087557      0.257013
Cr	      4.30070      6.30090      2.10455         0.051016      0.011575      0.023024
Cr	      2.21912      4.20551      2.07481        -0.013903     -0.030060     -0.033586
Cr	      4.25664      2.16575      6.35695         0.008568     -0.000586      0.020271
Cr	      6.33421      6.48236      8.43257        -0.038825     -0.016536      0.002153
O	      2.03293      2.18599      2.23441         0.023745      0.040077      0.153038
O	      4.18756      4.34657      2.11975         0.012412      0.002132      0.006936
O	      4.11915      2.12540      4.34225        -0.173723      0.050361      0.048544
O	      6.42917      4.40240      4.23211        -0.103679      0.192611      0.044509
O	      6.27329      2.14421      6.45531        -0.013563      0.032025      0.052391
O	      8.48763      4.35215      6.38261        -0.017097      0.049882      0.075437
O	      2.12723      4.20544      4.11678        -0.038743      0.008623     -0.041825
O	      4.35856      6.37715      4.14373         0.052507      0.049642     -0.108315
O	      4.30925      4.13623      6.35875         0.014261     -0.063692      0.012464
O	      6.49653      6.36463      6.28492         0.019637     -0.025010     -0.059893
O	      6.54620      4.23781      8.44394         0.050225     -0.019063     -0.036232
O	      8.60261      6.26782      8.44456        -0.040882     -0.042968     -0.051946
O	      2.13945      6.31871      6.24051        -0.027687      0.049318     -0.066610
O	      4.25983      8.48840      6.32120         0.000001      0.005952      0.000290
O	      4.40608      6.34766      8.50180         0.046376      0.063752     -0.083071
O	      6.41001      8.39645      8.46903         0.011674     -0.050745     -0.038879
O	      6.43867      6.36550     10.44582        -0.002082     -0.065520     -0.101749
O	      8.58094      8.40033     10.55859         0.032524     -0.093820     -0.012943
