# total energy = -237.55294052 eV
 
CRYSTAL
PRIMVEC
0.024130 6.445454 6.371459 
6.185758 0.056028 6.339278 
4.152787 4.304535 0.008435 
PRIMCOORD
36 1
Li	      0.12759      6.37968      6.38751        -0.029576     -0.033026      0.001473
Li	      6.07745      4.27694      2.11811        -0.007804     -0.021410     -0.030591
Li	      4.16027      2.24052      2.11380         0.013317     -0.048377     -0.007977
Li	      6.24810      8.59945     10.53962         0.016899     -0.081438     -0.056477
Li	      4.16554      6.43446      2.22682        -0.007899     -0.032130      0.053302
Li	      6.19312      4.38627      6.38707        -0.038813     -0.006733     -0.000161
Li	      8.25638      6.57265     10.59571        -0.029097      0.074749      0.065710
Li	      2.04862      4.38981      6.36835         0.001566      0.026110      0.019393
Li	      4.19567      4.32373      8.48592        -0.010129      0.028295     -0.015772
Sc	      8.22351     10.73271     10.55600        -0.047944     -0.097438     -0.181459
Sc	      4.18972      2.29491      6.30311         0.077829      0.189391     -0.083979
Ti	      2.14230      4.26104      2.18539         0.339301     -0.158069      0.122254
V	      8.18352      2.15696      6.37285         0.146988     -0.119368     -0.165340
V	      4.12233      6.45134      6.34366        -0.311106     -0.117754      0.260082
V	      6.23287      6.59711      8.48124        -0.200933      0.266799      0.163753
Co	      6.19221      6.43270      4.20594         0.085029     -0.045174      0.019293
Cu	      4.19566      4.32986      4.20681        -0.072370     -0.071635     -0.010267
Ni	      6.18748      4.38259     10.59209         0.082057     -0.049491      0.113384
O	      2.04257      2.31925      2.01931        -0.000447      0.060909     -0.028747
O	      4.05542      4.32210      2.19508        -0.331948     -0.007534     -0.180482
O	      4.08126      2.02859      4.27396        -0.227059     -0.016245     -0.061523
O	      6.15507      4.36618      4.15626         0.147778      0.329632      0.086243
O	      6.32525      2.20219      6.35711        -0.166492      0.075239     -0.038998
O	      8.30123      4.30226      6.39424        -0.045639      0.083788      0.054979
O	      2.13412      4.25373      4.13553        -0.155939     -0.207981      0.052926
O	      4.20387      6.61494      4.37997         0.315680      0.064826     -0.346009
O	      4.15368      4.35114      6.26084        -0.014973     -0.040579      0.144425
O	      6.20663      6.47409      6.47045         0.070803     -0.014734      0.009581
O	      6.32879      4.51414      8.50161         0.067259     -0.040397     -0.094890
O	      8.25804      6.38166      8.41032         0.042182     -0.056660      0.021928
O	      2.10703      6.56937      6.44290         0.258662     -0.033593     -0.078470
O	      3.98175      8.55983      6.37798         0.014525      0.044152      0.048644
O	      4.24841      6.39531      8.42122         0.089217      0.052273      0.128054
O	      6.26265      8.38565      8.47927        -0.001476     -0.151531      0.017014
O	      6.19552      6.42284     10.46658        -0.014999      0.158197     -0.034561
O	      8.26813      8.65002     10.72827        -0.054452     -0.003061      0.033263
