# total energy = -103.03187854 eV
 
CRYSTAL
PRIMVEC
0.000010 2.117884 2.116923 
6.068198 4.240347 -6.355344 
-4.048533 2.121346 -2.120442 
PRIMCOORD
16 1
Li	     -3.86519      2.13907     -2.13697        -0.008913      0.004129     -0.005602
Li	     -2.03114      4.22750     -2.10840        -0.021810     -0.014784      0.015724
Li	     -2.02456      2.26935     -0.15008        -0.021528      0.014060     -0.012956
Li	      1.97001      4.14210     -2.02098         0.019043     -0.006269      0.003003
Ti	     -0.00320      2.07948     -2.08508        -0.139354     -0.105933      0.103387
Ti	      4.03854      4.25935     -4.25402         0.106048      0.105804     -0.106036
Ni	     -0.09123      4.18095     -4.17448         0.045018      0.025807     -0.028703
Ni	      2.02468      6.37140     -4.24895         0.040637      0.034108     -0.033088
O	     -0.03982      6.41176     -4.28883        -0.118460      0.078326     -0.082854
O	      0.00761      4.21274     -2.08847         0.011971     -0.112313      0.115335
O	      2.05594      4.30180     -4.29629         0.125915     -0.107149      0.104711
O	      0.00768      2.23543     -0.11574         0.000662      0.114556     -0.110749
O	      1.95622      2.13426     -2.13081        -0.196109      0.005537     -0.003585
O	      1.91329      6.31971     -6.31506        -0.161654      0.087222     -0.085077
O	     -1.89269      2.10806     -2.10570         0.215583      0.015869     -0.017781
O	      4.06972      6.21294     -4.09150         0.102952     -0.138969      0.144270
