# total energy = -236.23279994 eV
 
CRYSTAL
PRIMVEC
0.038229 6.402845 6.297797 
6.342249 0.043556 6.291973 
4.250757 4.287524 0.007298 
PRIMCOORD
36 1
Li	      0.13075      6.39999      6.30238        -0.009379      0.010897     -0.031490
Li	      6.40682     10.53891      8.41683         0.027173     -0.029567     -0.020216
Li	      6.42383      8.56266     10.33357        -0.013600     -0.029905      0.038783
Li	     10.56384      6.56798      8.50063         0.014701     -0.000173      0.013788
Li	      2.06181      4.30504      2.25901         0.020636     -0.015489     -0.008767
Li	      6.39914      4.33843     10.36154        -0.042708      0.059581      0.055853
Li	      8.50000      6.41273     10.37717        -0.003289     -0.021502      0.024154
Li	      6.35864      8.62453      6.36038        -0.054414     -0.015578     -0.018674
Li	      8.41715      8.49242      8.56622        -0.041102      0.008190      0.045767
Sc	      8.53981      6.44461      6.42321         0.102705     -0.099497     -0.082795
Sc	      6.37009      4.29151      6.44706         0.126415     -0.131424     -0.069340
Ti	      4.17335      6.51563      6.30812        -0.202292      0.422770      0.166415
V	      2.08809      2.12040      0.06550         0.081821     -0.036199      0.027548
V	      4.30652      6.34204     10.42207        -0.092482      0.049332     -0.084298
V	      4.16299      4.29492      4.06347         0.110515     -0.120534     -0.302012
Co	      4.34916      8.55436      8.38645        -0.257654      0.050691     -0.132919
Ni	      2.10648      2.18691      4.09209         0.002923     -0.006651     -0.057066
Ni	      6.41030      6.47558      8.42299        -0.016832      0.033805      0.063397
O	      2.23126      2.21916      2.00295         0.518234     -0.000885      0.163221
O	      4.33967      4.31346      2.29509         0.061453     -0.044528     -0.015993
O	      4.18083      2.20901      4.22688         0.137701     -0.037137     -0.084319
O	      6.50249      4.38462      4.19551         0.032879     -0.042429     -0.012033
O	      6.36117      2.18995      6.35350        -0.102263      0.029383      0.015960
O	      8.47027      4.30036      6.16813        -0.021379      0.012550      0.057967
O	      2.30107      4.24565      4.21230        -0.126244      0.127565      0.048295
O	      4.29051      6.28735      4.32486        -0.100839      0.009294      0.033493
O	      4.31242      4.30616      6.12474        -0.064490      0.055933      0.045810
O	      6.30442      6.39737      6.28313        -0.014778      0.021650     -0.040745
O	      6.39592      4.37231      8.40259        -0.037289     -0.092696      0.060442
O	      8.46122      6.47989      8.38106         0.098076     -0.028151      0.057804
O	      2.27040      6.48404      6.27137         0.149475     -0.024200     -0.015727
O	      4.22766      8.40608      6.22453         0.137478     -0.215198      0.134747
O	      4.25920      6.35744      8.32144        -0.031175      0.066047     -0.008006
O	      6.32201      8.50713      8.37019        -0.439593      0.065918     -0.047306
O	      6.10396      6.48482     10.47907         0.053592      0.011991      0.039588
O	      8.46080      8.74669     10.60046        -0.003974     -0.043853     -0.061327
