# total energy = -240.21323079 eV
 
CRYSTAL
PRIMVEC
0.021007 6.382713 6.311335 
6.366865 0.026319 6.306070 
4.252541 4.259567 0.009676 
PRIMCOORD
36 1
Li	      8.49883      8.54025     12.59542         0.032701      0.000466     -0.012391
Li	      2.15929      6.41289      8.40275        -0.012594      0.001698     -0.038836
Li	      8.40929      4.30136      4.22758        -0.052873      0.033871      0.062407
Li	      6.44785      2.28509      8.35783         0.040099      0.067119     -0.036747
Li	      8.34018      4.28691      8.43040         0.001546      0.012198     -0.004684
Li	      6.37947      6.36142      4.30296         0.036904     -0.045521      0.044250
Li	      6.45132      4.34174      6.34501         0.073987      0.073284     -0.048781
Li	      0.05567      4.20852      4.13968         0.029690     -0.028017     -0.013206
Li	      4.36751      6.45321      6.30120         0.067730      0.054526     -0.058588
Sc	      4.31268      4.28484      4.21511         0.056563     -0.004645     -0.083040
Sc	      4.35908      4.35836      8.36932         0.013987     -0.119594     -0.040737
Ti	      2.19853      6.37725      4.20825         0.194897     -0.124830     -0.031513
V	     10.53574      4.27831      6.35170        -0.140089      0.099717     -0.003096
V	      4.07414      2.08020      2.09572        -0.243968      0.002134      0.122113
V	      6.38580      2.17836      4.22499        -0.114499      0.047307      0.151064
Co	      8.45685      6.38052      6.32040         0.420341     -0.105206      0.114591
Co	      6.36435      8.46948      6.30548         0.013723      0.017854     -0.084433
Ni	      6.36541      6.35330      8.38032         0.060808     -0.026448      0.039030
O	      2.31047      2.09288      2.13607         0.072939      0.008965     -0.024131
O	      4.31160      4.11315      2.03782        -0.044620     -0.049173     -0.007578
O	      4.28036      2.16667      4.11365        -0.046214     -0.076137     -0.109657
O	      6.36391      4.15020      4.24129        -0.004543      0.024298      0.007585
O	      6.34026      2.01951      6.25713        -0.439849      0.006093      0.063915
O	      8.71600      4.28025      6.30446        -0.156985      0.248305      0.001676
O	      2.17053      4.41884      4.18345        -0.042836      0.113710     -0.030013
O	      4.11961      6.36590      4.23441        -0.182998      0.005107      0.003293
O	      4.21839      4.24039      6.29642        -0.149388     -0.189420      0.058731
O	      6.44679      6.43226      6.33886         0.381013     -0.001711     -0.124543
O	      6.35034      4.30190      8.38932        -0.070707     -0.081275      0.010745
O	      8.44609      6.47212      8.54352         0.142522     -0.005185      0.120428
O	      1.93651      6.36317      6.20635         0.080430      0.065003     -0.074886
O	      4.28622      8.61093      6.45078         0.046308     -0.014415     -0.110708
O	      4.27899      6.46632      8.38385        -0.107902     -0.016334      0.005606
O	      6.30220      8.45921      8.50542         0.012694      0.090414      0.039563
O	      6.46862      6.47921     10.59683         0.014772     -0.056152      0.034981
O	      8.49070      8.42327     10.49330         0.016408     -0.028003      0.057587
