# total energy = -241.87478762 eV
 
CRYSTAL
PRIMVEC
0.006000 6.313419 6.351457 
6.278470 -0.007069 6.364495 
4.174033 4.205947 0.007055 
PRIMCOORD
36 1
Li	      6.28959      6.29655     12.68087        -0.005118     -0.134237      0.075167
Li	      8.39529      8.42688     12.66576         0.037988      0.035802      0.018715
Li	      4.23773      8.37060      8.44993         0.063919     -0.037930     -0.110788
Li	      6.26161      2.06170      4.29564        -0.068182      0.022909      0.028609
Li	      4.12054      4.24240      4.27685        -0.038476      0.012082      0.037789
Li	      4.17225      2.11066      6.31020        -0.064885      0.032319     -0.091763
Li	      4.16692      8.40250      4.34299         0.032706      0.015149      0.208703
Li	      4.20756      6.34406      6.28609         0.011722      0.102370     -0.027857
Li	      6.24625      6.37760      8.45053        -0.003530      0.078186     -0.101527
Sc	      2.06574      6.33469      8.40629        -0.008801     -0.199908      0.067662
Sc	      2.13735      4.19306      2.12169         0.071889     -0.052354     -0.012066
Ti	      6.17029      4.16698      6.28278        -0.162377     -0.098430     -0.112032
V	      4.34164      6.33593     10.65108        -0.002336      0.349507     -0.140985
V	      2.06435      6.35481      4.32484         0.134503     -0.220738      0.320163
V	      4.21467      4.19838      8.47769        -0.247451      0.066361     -0.065205
Co	      6.18358      6.31185      4.28058         0.121866      0.038231      0.081389
Co	      4.17732      6.29088      2.12668         0.042087      0.039353     -0.059459
Co	      6.08954      8.34011      6.34739         1.289629     -0.053835      0.022556
O	      2.12397      2.11198      2.14649        -0.085021      0.085467      0.008906
O	      4.18471      4.20231      2.12005        -0.091766      0.107735      0.060679
O	      4.16183      1.83796      4.22936        -0.016617     -0.378975     -0.009150
O	      6.32405      4.16021      4.30090         0.077809      0.003570      0.120177
O	      6.25250      2.28514      6.40143        -0.007968      0.194700      0.072216
O	      8.30380      4.19762      6.33369        -0.108584      0.017069     -0.041527
O	      2.10774      4.23930      4.25605        -0.268201      0.375610     -0.069656
O	      4.08630      6.34264      4.18936        -0.153718     -0.019836     -0.110527
O	      4.24234      4.20659      6.37643         0.081208     -0.032105     -0.114613
O	      6.27838      6.25457      6.31244        -0.106101     -0.374751     -0.031293
O	      6.27022      4.22484      8.33587        -0.044359      0.082455     -0.047150
O	      8.33069      6.35724      8.61821         0.032363     -0.024429      0.120638
O	      2.11468      6.29197      6.32707        -0.193233      0.079305     -0.571194
O	      4.31221      8.37341      6.38813        -0.403338      0.050508      0.030525
O	      4.19917      6.20794      8.61861        -0.023280     -0.121502      0.147954
O	      6.38811      8.43889      8.38649         0.089440      0.094398      0.235224
O	      6.28740      6.33157     10.65897         0.022545      0.022326     -0.061593
O	      8.38925      8.52849     10.57159        -0.006333     -0.156384      0.121312
