# total energy = -234.38997839 eV
 
CRYSTAL
PRIMVEC
-0.008471 6.360036 6.330429 
6.239171 -0.000913 6.322931 
4.156230 4.231772 0.002572 
PRIMCOORD
36 1
Li	      6.20489      0.06166      6.33593         0.040160     -0.023802      0.036463
Li	      6.17595      2.16729      4.27562         0.004011      0.073292      0.016410
Li	      6.25122      2.14064      8.40821         0.020133      0.018632      0.049997
Li	      8.27543      4.22770      8.37576        -0.009047     -0.026496      0.040655
Li	      4.23063      4.25089      4.26965         0.002443     -0.001889     -0.008212
Li	      6.20744      4.26047      6.34903        -0.005641      0.023572      0.022906
Li	      6.29343      8.37950      6.34414         0.022501     -0.005359     -0.042689
Li	      4.26155      6.31348      6.33642         0.056211      0.004631     -0.022764
Li	      6.24025      6.29332      8.35217        -0.002948     -0.075156      0.019930
Sc	      8.25816      4.26345      4.24697         0.052765      0.029152     -0.048385
Sc	      4.20657      8.41168      4.23753         0.038888     -0.011182      0.059385
Ti	      8.35246      6.36756      6.45616        -0.002134      0.014204      0.053405
V	      4.16969      8.54992      8.33888         0.046917     -0.004701     -0.034932
V	      2.06979      6.27624      4.32016         0.011848     -0.043851      0.008973
V	      4.12181      4.26454      8.37015        -0.079186      0.012364     -0.031148
Cu	      6.20341      4.22758      2.13124        -0.114407     -0.006997     -0.043878
Ni	      8.19140      2.17835      6.36908        -0.007111     -0.017084      0.011559
Ni	      6.22039      6.30720      4.25183        -0.077701      0.113588     -0.060111
O	      2.16625      2.01183      2.09203        -0.023484      0.124578      0.080184
O	      4.15891      3.97691      2.09934        -0.097222      0.037481     -0.024614
O	      4.15676      2.08919      4.20011         0.105442     -0.006555      0.068471
O	      6.25925      4.27156      4.26314         0.018692     -0.106540      0.023655
O	      6.13530      2.09815      6.36389        -0.270077      0.040250     -0.011005
O	      8.32400      4.31791      6.32823        -0.021609      0.192339     -0.026137
O	      2.08896      4.34166      4.17816        -0.031036     -0.004511      0.020770
O	      4.08668      6.33622      4.20965        -0.067400      0.053811     -0.032211
O	      4.16314      4.12796      6.42460         0.013852     -0.108422      0.033291
O	      6.41539      6.38145      6.27824         0.132086     -0.021837      0.088829
O	      6.07487      4.23962      8.51439        -0.026934     -0.018429     -0.025898
O	      8.29151      6.39441      8.42994        -0.009292      0.086724     -0.105026
O	      2.06204      6.45307      6.08324        -0.018249     -0.091983     -0.028659
O	      4.06609      8.45178      6.39917         0.135633      0.008160     -0.062541
O	      4.21997      6.49530      8.43017         0.087351     -0.066960      0.043055
O	      6.25245      8.61513      8.39357         0.124891     -0.171994     -0.012777
O	      6.31840      6.29118     10.52502        -0.058325     -0.050907      0.027314
O	      8.28077      8.42799     10.49090         0.007978      0.031875     -0.084267
