# total energy = -235.01413445 eV
 
CRYSTAL
PRIMVEC
0.010046 6.396845 6.298400 
6.324475 -0.006845 6.315024 
4.210463 4.269906 0.001379 
PRIMCOORD
36 1
Li	      2.24825      8.33036      6.27341         0.011296     -0.026088      0.038439
Li	      2.06324      0.04190      2.04223         0.033095      0.004541     -0.023171
Li	      6.34935      8.51430     10.44196        -0.002835      0.048325      0.055730
Li	      4.27037      4.29487      4.16042         0.020769      0.033046      0.039972
Li	      6.26121      4.29369      6.30447        -0.075851      0.028097      0.006548
Li	      4.16871      8.46095      4.26879         0.003701     -0.078099      0.013655
Li	      8.41211      6.53543     10.59488        -0.084251      0.053798     -0.078360
Li	      4.10806      6.47897      6.29030         0.010209     -0.135033     -0.012284
Li	      6.29962      6.45379      8.44466         0.021540      0.049272     -0.035126
Sc	      8.38350      4.25011      8.43719        -0.132397      0.092902      0.004106
Sc	      2.01554      4.34833      6.28233         0.085747     -0.092319      0.057781
Ti	      4.35537      6.31081     10.46936         0.154829     -0.194432     -0.181516
V	      4.30467      2.17379      6.30689        -0.080249      0.126242      0.061898
V	      6.27865      6.28538      4.19556        -0.027499      0.005453      0.113834
V	      8.43496      8.53152      8.43806        -0.023431     -0.000555     -0.066066
Cu	      0.05475      6.38572      6.28676         0.069252      0.004722     -0.048371
Cu	      4.21616      6.37454      2.13944        -0.094966     -0.007943     -0.057117
Ni	      4.30364      8.53869      8.39673         0.046849     -0.005531      0.042687
O	      2.26039      2.17460      2.22382         0.013316      0.034548     -0.047125
O	      4.17683      4.32657      2.03311         0.042459     -0.063397      0.017869
O	      4.18756      2.04564      4.26836         0.015488     -0.025665     -0.048735
O	      6.42889      4.45353      4.23417         0.084238     -0.028409     -0.038184
O	      6.09190      2.24911      6.32129         0.170518      0.083130     -0.151327
O	      8.47077      4.38767      6.27067        -0.160204     -0.061631     -0.069238
O	      2.14133      4.05941      4.17980         0.035759     -0.024949     -0.049594
O	      4.39465      6.33747      4.14074         0.029775     -0.039345      0.106381
O	      4.18324      4.17981      6.41101        -0.013690     -0.060506      0.087173
O	      6.50003      6.42813      6.18069        -0.070958     -0.011496     -0.074359
O	      6.23399      4.12056      8.43172         0.029512      0.139856      0.041994
O	      8.26376      6.39463      8.30533        -0.128660     -0.027120     -0.041916
O	      2.02997      6.38068      6.22517         0.165909      0.051729      0.030978
O	      4.22915      8.39898      6.36922        -0.035710     -0.104732     -0.141818
O	      4.27500      6.37465      8.55606         0.046530      0.017998      0.306482
O	      6.39354      8.56539      8.38744         0.063139      0.038119      0.026136
O	      6.21445      6.40272     10.57123        -0.253734     -0.006150     -0.018783
O	      8.39649      8.66118     10.46427         0.030506      0.181622      0.131428
