# total energy = -240.99476687 eV
 
CRYSTAL
PRIMVEC
0.008128 6.354714 6.552639 
6.172912 0.036467 6.526872 
4.136724 4.240519 0.002579 
PRIMCOORD
36 1
Li	      1.97280      2.11147      0.13073        -0.009611     -0.003293      0.048210
Li	      1.99452      0.14383      2.22097        -0.013689      0.020730      0.023473
Li	      6.14025      2.20399      4.43579        -0.075018      0.014551     -0.009803
Li	      0.08824      2.07848      2.14798        -0.045871      0.007461     -0.016064
Li	      2.05828      2.14259      4.32928         0.041089      0.020346     -0.037235
Li	      4.17257      4.25639      4.30927         0.006984      0.005699     -0.089634
Li	      6.19029      4.20492      6.55371        -0.013242     -0.033142     -0.015053
Li	      2.14323      4.18800      6.47700         0.015265     -0.002516     -0.038492
Li	      6.24801      6.33864      8.60637         0.021045     -0.017640     -0.063045
Sc	      4.10054      2.16167      2.16305        -0.092209      0.062834      0.132418
Sc	      4.25494      6.33797      6.54388         0.071331     -0.036541      0.028804
Ti	      8.07021      4.28429      4.45666        -0.655804      0.284714      0.148883
V	      6.19932      0.12983      6.53841         0.010604      0.049959      0.071787
V	      2.06175      6.36587      4.39296         0.158641      0.121363     -0.186722
V	      8.17182      8.47399      8.71267        -0.031971     -0.053625     -0.116034
Fe	      0.07686      4.20382      4.33616         0.074644     -0.031301      0.037290
Co	      8.18070      4.26354      8.68195         0.010335     -0.006576      0.017503
Cu	      4.08235      2.20021      6.49720        -0.030038      0.002516     -0.056653
O	      2.08302      2.19102      2.14569         0.128421     -0.010683     -0.057048
O	      4.13933      4.21142      2.02496        -0.047960     -0.004748      0.026264
O	      4.15329      1.93872      4.21513        -0.017206     -0.256738     -0.118885
O	      6.25505      4.23019      4.35988         0.672826     -0.000484      0.021762
O	      6.03885      2.02337      6.49654         0.081610     -0.072887     -0.001411
O	      8.21272      4.21516      6.38931        -0.023993     -0.087894     -0.235602
O	      2.04170      4.31511      4.27995         0.036439     -0.109805      0.083503
O	      4.09601      6.44150      4.46048        -0.176666     -0.076091      0.043150
O	      4.16995      4.23827      6.74857        -0.007414      0.113018      0.156345
O	      6.25141      6.38628      6.54283        -0.175182     -0.023784      0.031408
O	      6.03567      4.27882      8.85824         0.009245     -0.002238     -0.036031
O	      8.22306      6.48538      8.90982         0.017289      0.008592      0.200751
O	      2.09902      6.41434      6.40948         0.046394     -0.059649      0.064126
O	      4.20225      8.50947      6.54976        -0.032525      0.017159     -0.024466
O	      4.14296      6.33344      8.75730        -0.000915     -0.021300      0.018958
O	      6.36249      8.51958      8.75800         0.040705     -0.036041      0.021522
O	      6.17307      6.27129     11.05067         0.011161      0.101680     -0.052146
O	      8.29407      8.57582     10.79572        -0.004717      0.116351     -0.021830
