# total energy = -243.69543630 eV
 
CRYSTAL
PRIMVEC
0.031522 6.391542 6.317444 
6.307544 0.020122 6.328910 
4.212428 4.276278 0.005931 
PRIMCOORD
36 1
Li	      6.25053      4.28497      2.18694         0.051645     -0.022782      0.005517
Li	      6.30509      2.20253      4.19156        -0.004792      0.041471     -0.000184
Li	      2.12976      4.27592      2.18204        -0.007886     -0.002675      0.061928
Li	      2.08294      2.16462      4.14395        -0.010391      0.024306     -0.025744
Li	      4.22388      2.19569      6.36678         0.069436     -0.009219      0.003690
Li	      6.28476      4.24669      6.32806        -0.019565     -0.055444      0.001343
Li	      0.08298      4.21562      4.11987         0.009405     -0.057631      0.040991
Li	      8.44387      6.43902     10.49131         0.066320      0.041016      0.003048
Li	      8.47931      8.47280      8.47469         0.045230     -0.010983      0.053873
Sc	      8.26669      4.27055      4.21829        -0.187420     -0.077530      0.055685
Sc	      4.23712      6.34673      6.23219        -0.030701      0.063946     -0.175650
Ti	      6.49453      6.26262      8.51582         0.233327     -0.191357     -0.088845
V	      6.30610      0.07331      6.30784        -0.058517     -0.367548     -0.037015
V	      8.37693      2.16227      6.29416        -0.118202      0.135366     -0.114407
V	      4.20172      2.21112      2.19017        -0.118672     -0.246372     -0.126434
Fe	      2.20934      4.20652      6.21188        -0.214473      0.094974      0.113118
Co	      4.25618      4.29755      4.20973        -0.002115     -0.064099      0.049826
Co	     10.48657      6.48871      8.50952        -0.070196      0.251867      0.136408
O	      2.29921      2.12607      2.00001         0.256803      0.028348      0.132941
O	      4.22736      4.17316      2.03940        -0.031275      0.123715     -0.194419
O	      4.20089      2.14899      4.09379        -0.006079      0.018430     -0.022522
O	      6.28294      4.26335      4.22727         0.002917      0.042987     -0.030552
O	      6.38038      2.07183      6.50845         0.290647      0.215509     -0.389521
O	      8.53392      4.25493      6.28469         0.047816     -0.002707     -0.026233
O	      2.16803      4.22535      4.32647         0.014524     -0.002954     -0.201064
O	      4.23231      6.40849      4.16361         0.078894     -0.085793      0.489377
O	      4.15645      4.32353      6.38999         0.061682      0.003185      0.009210
O	      6.29755      6.47963      6.46992         0.076731     -0.057117      0.117821
O	      6.34033      4.40310      8.43830         0.081933      0.316826      0.026810
O	      8.34746      6.44425      8.46140        -0.590558     -0.060710      0.020184
O	      2.08701      6.36910      6.30944        -0.057823      0.036816     -0.027248
O	      4.21312      8.59013      6.36211         0.043744     -0.237546      0.058790
O	      4.30544      6.50589      8.41249         0.024286      0.026517      0.090194
O	      6.12994      8.45540      8.33070         0.050083      0.002351      0.019391
O	      6.29989      6.44109     10.45404         0.042555      0.029170      0.105463
O	      8.41309      8.58875     10.66783        -0.019310      0.055667     -0.135769
