# total energy = -237.30174312 eV
 
CRYSTAL
PRIMVEC
0.018482 6.388260 6.226924 
6.334144 0.011505 6.233781 
4.231776 4.272245 -0.001145 
PRIMCOORD
36 1
Li	      6.32040      6.41944     12.34414         0.009283     -0.001965      0.031822
Li	      4.29612      0.03772      4.20014         0.027029     -0.013507      0.048557
Li	      6.30712      2.13649      4.26286         0.037243      0.013842      0.032682
Li	      6.21250      6.28283      4.17362        -0.065591     -0.016685      0.028616
Li	      4.35179      4.34602      4.21519        -0.029417      0.029301      0.027492
Li	      4.26105      2.13929      6.11539        -0.048383      0.024429     -0.052077
Li	      0.02317      4.29395      4.19057        -0.022970     -0.012667      0.026361
Li	      4.22490      6.38748      6.10496         0.028836     -0.013043     -0.026253
Li	      6.32498      6.41716      8.45372        -0.030282      0.031497     -0.037733
Sc	      8.36408      6.40261     10.46978         0.038455      0.081550     -0.004526
Sc	      4.29930      4.42066      8.30890         0.035367      0.009816     -0.084538
Ti	      8.47469      4.36714      8.26363        -0.018625      0.162728     -0.219065
V	      8.49632      8.53594     12.41238         0.021125      0.013570     -0.072617
V	      4.25575      2.08995      2.23142         0.045840     -0.028216     -0.112300
V	      6.32530      8.35890      6.17894        -0.010772     -0.197488      0.001295
Fe	      4.25875      6.36292      2.13632        -0.003773      0.034748     -0.134171
Cu	      6.31108      4.26141      6.08084        -0.027038      0.097971      0.064148
Ni	      6.31931      4.27106      2.16292        -0.022843      0.001039     -0.021787
O	      2.24650      2.18205      2.01572         0.015906      0.091223      0.044086
O	      4.13014      4.13211      2.09537        -0.110144     -0.028237      0.028223
O	      4.26756      2.11177      3.96837         0.006439      0.015444      0.164801
O	      6.34108      4.27641      4.17911         0.010955     -0.047080     -0.034492
O	      6.53403      2.15740      6.32348         0.066636     -0.084650     -0.111553
O	      8.51024      4.23048      6.36516         0.110442     -0.016962      0.258243
O	      2.07387      4.28249      4.11589        -0.008320     -0.016426     -0.109554
O	      4.18197      6.41546      4.06748        -0.044744     -0.015159      0.217178
O	      4.05686      4.24987      6.27627        -0.149360      0.023186     -0.048659
O	      6.32714      6.61067      6.17188         0.012563      0.084890     -0.026512
O	      6.41030      4.32106      8.13996         0.087832      0.004527      0.147645
O	      8.43369      6.29912      8.29005        -0.024387     -0.206860     -0.027461
O	      2.10651      6.32829      6.28668         0.026579      0.023954     -0.072153
O	      4.26516      8.49409      6.37411        -0.031970      0.036479      0.031170
O	      4.20176      6.45220      8.31299         0.060461      0.009952      0.019064
O	      6.30954      8.57222      8.18915        -0.018095     -0.099131      0.005795
O	      6.38534      6.41648     10.38653         0.037150      0.007574      0.006911
O	      8.51071      8.52017     10.41563        -0.011427      0.000356      0.011363
