# total energy = -103.32868901 eV
 
CRYSTAL
PRIMVEC
-0.000062 2.078984 2.078280 
8.444176 -4.205898 4.204173 
2.120979 4.203883 -2.124284 
PRIMCOORD
16 1
Li	      0.18534      2.07990      2.07818         0.003188      0.003106     -0.001088
Li	      2.20663      1.96412      0.11624        -0.026244      0.008221     -0.007709
Li	      6.18789      2.13741     -0.05563         0.005579     -0.004218      0.000919
Li	      6.35169     -2.11754      4.19567         0.003805      0.005408     -0.005056
Ti	      6.22682      0.00530      2.07475        -0.243443      0.032494     -0.031336
Ti	      8.64052     -0.03500      4.19531         0.561400     -0.080637      0.075123
Ni	      4.13992      4.19537     -0.03570        -0.033812     -0.036279      0.038508
Ni	      4.11110      2.15085      2.00766         0.053318     -0.027330      0.027340
O	      6.38540      1.97747      2.18057         0.042145     -0.109685      0.112470
O	      6.38061      0.08348      4.07505         0.019533      0.070411     -0.069497
O	      8.35302     -0.08485      2.16450        -0.036697     -0.037796      0.037005
O	      8.40048     -1.97731      4.05793         0.006604      0.126125     -0.125862
O	      1.99400      4.23236     -0.07138        -0.578040     -0.012784      0.008756
O	      2.12120      2.01463      2.14399        -0.113386      0.116074     -0.120664
O	      4.23974      2.10090     -0.02085         0.004714      0.022370     -0.019304
O	      4.35677      0.00637      2.07309         0.331336     -0.075478      0.080396
