# total energy = -238.68084190 eV
 
CRYSTAL
PRIMVEC
0.031281 6.402977 6.212695 
6.484441 0.056393 6.188390 
4.372101 4.300478 -0.010857 
PRIMCOORD
36 1
Li	     10.77396      4.43797      6.23061         0.026021      0.020669     -0.006637
Li	      4.31670      0.10860      4.12406         0.007680      0.031984     -0.042972
Li	      6.48405      2.26925      8.27844         0.041691      0.006769     -0.007090
Li	      6.45495      6.47989      4.12501        -0.049211     -0.069535     -0.078253
Li	      8.64806      6.32467      6.22787        -0.037460      0.035210     -0.102096
Li	      6.57867      4.42433      6.19481        -0.026292     -0.018383     -0.051175
Li	      0.09668      4.19918      4.06565        -0.073207     -0.032671      0.026089
Li	      2.23847      6.40846      4.11412         0.030838      0.043826      0.047819
Li	      6.57397      6.37325      8.24788        -0.067168      0.069878      0.024938
Sc	      4.33481      4.28983      4.06923         0.130902     -0.037793     -0.091050
Sc	      6.46047      8.55129      6.17582         0.000770      0.014256      0.135557
Ti	      8.62314      2.38573      6.22967        -0.133528     -0.014897      0.177095
V	      2.21347      6.41540      8.27903         0.052552     -0.053152      0.083341
V	      6.56616      8.42489     10.35568        -0.027670      0.284437      0.010137
V	      8.86229      8.47105      8.29356        -0.038604      0.314196      0.027549
Fe	      4.41901      6.42958      6.13809        -0.084111     -0.023738      0.096903
Cu	      4.26917      2.16231      2.09837        -0.030241     -0.041601      0.043909
Cu	      8.51815      4.50593      8.30537        -0.006961     -0.010155      0.003288
O	      2.08920      2.03049      1.93991        -0.037849      0.143243     -0.170137
O	      4.63279      4.21172      2.01596        -0.116661      0.065249     -0.009531
O	      4.52367      2.17393      4.09991         0.086322     -0.022870      0.116847
O	      6.49627      4.16316      4.04648        -0.073768     -0.031136      0.030640
O	      6.68895      2.21954      6.08852         0.195074      0.006571      0.032205
O	      8.70781      4.22549      6.22114        -0.006100     -0.062460      0.143457
O	      2.23597      4.28009      4.16156        -0.044757      0.023630     -0.169621
O	      4.39652      6.35627      4.19056        -0.066153     -0.036442     -0.081761
O	      4.29217      4.34126      6.24205        -0.064753      0.014201      0.001178
O	      6.40209      6.51079      6.21628         0.056646      0.093238     -0.025916
O	      6.29265      4.41069      8.31097         0.034030     -0.020380     -0.041031
O	      8.70215      6.67260      8.22193        -0.043732     -0.304990      0.025407
O	      2.28933      6.45597      6.24013         0.049923     -0.017591     -0.004899
O	      4.30576      8.50170      6.22631        -0.006133      0.033624     -0.182601
O	      4.21753      6.35053      8.22482         0.147409     -0.042454     -0.040355
O	      6.76325      8.64796      8.31286         0.177893     -0.155310      0.008473
O	      6.52934      6.67939     10.32095         0.019768     -0.253336      0.014884
O	      8.62238      8.58773     10.36077        -0.023161      0.047913      0.055408
