# total energy = -238.77146579 eV
 
CRYSTAL
PRIMVEC
0.012867 6.357610 6.198209 
6.412671 0.004962 6.206139 
4.266232 4.234695 0.012055 
PRIMCOORD
36 1
Li	      6.45667      6.33620     12.32022         0.029448     -0.008465      0.030802
Li	      8.58239      8.48673     12.37030         0.053403     -0.008528      0.009264
Li	      6.43930     10.58055      8.30509         0.048264     -0.036445     -0.013691
Li	      8.51920      4.22462      4.21540         0.012125      0.021226      0.045174
Li	      6.43257      6.27115      4.14766         0.014617     -0.150504     -0.034763
Li	      4.34362      4.20698      4.12055         0.081387      0.000266     -0.022526
Li	      6.45149      4.23407      6.14622         0.042584      0.004705      0.055616
Li	     10.62647      8.51534     10.38316        -0.098312      0.021023     -0.010453
Li	      8.50552      6.41818     10.38946        -0.023020      0.067984      0.009886
Sc	      4.24299      6.33133      6.05886        -0.007319     -0.001430     -0.069304
Sc	      6.43563      6.31404      8.36313        -0.016445     -0.028420      0.038154
Ti	      6.50097      2.22413      4.29561         0.119135      0.165729      0.103472
V	      4.27519      2.13459      2.12940        -0.038580     -0.031585     -0.041094
V	      2.15435      4.18509      2.08486        -0.065969      0.067802      0.084951
V	      4.30103      6.32376      2.11326         0.040061     -0.006386     -0.005207
Fe	      2.12100      4.30321      6.01439        -0.013745     -0.088321      0.040866
Ni	      4.24565      2.13511      6.13175         0.039583      0.000455     -0.007269
Ni	      8.53446      8.50142      8.31326         0.095216      0.047936      0.019747
O	      2.11008      2.22058      2.06514        -0.123178     -0.060906     -0.044630
O	      4.12789      4.17726      2.09156         0.034638     -0.079060     -0.026069
O	      4.38506      2.10211      4.09497        -0.031719     -0.000258     -0.102771
O	      6.40379      4.07679      4.15989         0.026276     -0.151436     -0.003240
O	      6.38491      2.12752      6.22084         0.083625      0.007950     -0.151749
O	      8.50766      4.31893      6.46366        -0.041740     -0.103026     -0.108604
O	      2.10440      4.26617      4.00936        -0.035805     -0.010700     -0.089388
O	      4.28756      6.33864      4.04298         0.013900     -0.034745      0.068594
O	      4.16448      4.22020      6.25073         0.090734      0.061178     -0.131113
O	      6.41300      6.45877      6.19115        -0.060783     -0.057928     -0.006140
O	      6.43966      4.20802      8.30324         0.049703      0.070294     -0.016893
O	      8.61684      6.33173      8.25011         0.097764     -0.051446      0.138996
O	      2.20539      6.23322      6.18778        -0.048171      0.183848      0.045700
O	      4.36541      8.43655      6.27832        -0.108628      0.022281     -0.029682
O	      4.35092      6.41806      8.22244        -0.089641      0.050224      0.021904
O	      6.40871      8.44343      8.31606        -0.077103      0.086090      0.000051
O	      6.40400      6.50387     10.33959         0.034802      0.012072      0.006983
O	      8.41562      8.49949     10.32908        -0.127110      0.018528      0.194426
