# total energy = -244.04116260 eV
 
CRYSTAL
PRIMVEC
0.035870 6.209202 6.399436 
6.438326 0.005711 6.429489 
4.302015 4.169625 -0.005990 
PRIMCOORD
36 1
Li	      4.30901      4.20899      0.12835         0.008289     -0.038068      0.045488
Li	      6.32934      4.25315      2.12264        -0.035695      0.042732     -0.032018
Li	      4.27397      6.06836      2.12041        -0.039526      0.009865      0.039354
Li	      2.27418      4.24450      2.15739         0.017880     -0.042021     -0.013910
Li	      2.13434      2.09091      4.18133         0.001707      0.049731     -0.065444
Li	      4.31639      4.18591      4.14418         0.016005     -0.025699     -0.053409
Li	      8.66303      6.19482      6.50703        -0.016129     -0.066956     -0.003664
Li	      2.18226      6.15262      4.19290         0.032646      0.020887      0.007649
Li	      4.29760      6.24138      6.43313        -0.006664      0.013326      0.051272
Sc	      2.20808      4.22622      6.36570         0.074425     -0.022343     -0.157882
Sc	      8.63725      8.24816      8.57663         0.052579      0.149490      0.127759
Ti	      6.45987      4.22839      6.36392         0.206001      0.526562     -0.058462
V	      2.17122      8.20810      6.46464         0.071359      0.006388     -0.124495
V	      6.38848      2.02424      4.32719         0.594984     -0.111557     -0.138745
V	      4.41531      8.21461      4.26197        -0.049885     -0.309781      0.018888
Fe	      4.21559      2.21234      2.19250         0.115491     -0.236241      0.154076
Fe	      4.28327      0.07492      4.28145        -0.274939      0.145349      0.183692
Co	      6.52692      6.19165      8.53515        -0.072210      0.020843      0.080716
O	      2.26915      2.05276      2.02057        -0.147366      0.000447      0.021704
O	      4.30339      4.09207      2.13192         0.041319      0.203009     -0.069004
O	      4.41735      2.13806      4.19512        -0.704994     -0.230719      0.009533
O	      6.40871      4.09730      4.45209        -0.193298     -0.336207      0.111654
O	      6.46826      2.13695      6.36268        -0.149054      0.048052     -0.480600
O	      8.40540      4.06629      6.37378        -0.142641     -0.060913      0.382638
O	      2.02713      4.14699      4.32800        -0.003462     -0.019578     -0.028193
O	      4.30172      6.45926      4.21574         0.027937      0.121271      0.020933
O	      4.37636      4.17889      6.49388         0.083419     -0.057114      0.018584
O	      6.48454      6.14723      6.39315        -0.029743     -0.278330      0.039638
O	      6.42061      4.11052      8.56115         0.038686      0.027368     -0.098583
O	      8.55723      6.25540      8.54237        -0.046030      0.031851      0.003177
O	      2.21050      6.23400      6.38229        -0.013986     -0.008377      0.021632
O	      4.34726      8.30498      6.30591         0.030679      0.024616     -0.072671
O	      4.41470      6.28717      8.60663         0.085170      0.003468     -0.394258
O	      6.47921      8.33757      8.56302        -0.051851      0.079808      0.386038
O	      6.46666      6.13557     10.68236         0.027838      0.254921      0.031439
O	      8.59379      8.29033     10.74934         0.451061      0.063920      0.035475
