# total energy = -241.46022623 eV
 
CRYSTAL
PRIMVEC
0.026987 6.394398 6.313458 
6.418289 0.029958 6.310701 
4.289840 4.272065 0.008754 
PRIMCOORD
36 1
Li	      6.55544      6.50003     12.57267         0.086034      0.098278      0.005219
Li	      8.55611      8.49296     12.56170        -0.004846      0.026276     -0.007082
Li	      6.51179      8.52723     10.57858        -0.002356     -0.006196     -0.003984
Li	     10.63719      6.45732      8.41297        -0.045239     -0.012608      0.036365
Li	      8.59178      6.40863      6.38151         0.015843     -0.013846     -0.033110
Li	      4.30745      8.51015      4.26013        -0.002384      0.008874     -0.033943
Li	      8.58111      6.45197     10.50540         0.043684     -0.051103     -0.066444
Li	      6.38261      8.59033      6.32078         0.008677      0.068681     -0.043923
Li	      6.56301      6.41026      8.33705        -0.003958     -0.048130     -0.027720
Sc	      4.37852      8.54736      8.34104        -0.000229      0.040716      0.012136
Sc	      4.24117      4.26286      4.26509        -0.142487      0.009820      0.008521
Ti	      6.44958      4.14403      6.44286        -0.011120     -0.303400      0.238093
V	      2.16802      6.42402      8.37973        -0.005200      0.069136     -0.002399
V	      4.47199      6.34733     10.53747         0.051715      0.060062      0.066188
V	      8.56446      4.39874      8.38574        -0.017879     -0.088428      0.074075
Fe	      6.40921      6.46092      4.27614         0.023218      0.020974     -0.058893
Fe	      4.28365      6.48960      6.23923        -0.043588     -0.178205      0.144054
Cu	      8.52759      8.41066      8.48462         0.023718     -0.103264     -0.051138
O	      2.20199      2.14072      2.14535         0.035664     -0.033275     -0.141411
O	      4.29678      4.25422      2.13495         0.017238      0.045608     -0.040842
O	      4.28901      2.09489      4.19072         0.068343     -0.054112      0.001624
O	      6.48445      4.29439      4.21304         0.000888     -0.124347      0.013449
O	      6.41667      2.31973      6.29899         0.002477      0.264076      0.013299
O	      8.43963      4.28029      6.26996        -0.060904     -0.026952     -0.050086
O	      2.18937      4.27795      4.08673         0.028241      0.138786      0.061992
O	      4.24461      6.33292      4.30072        -0.084619      0.014821     -0.096217
O	      4.39557      4.30412      6.35304        -0.011676      0.003260     -0.059752
O	      6.30068      6.27120      6.30165         0.021640     -0.078199      0.202486
O	      6.48612      4.26233      8.31901         0.054137     -0.038657     -0.188464
O	      8.54186      6.28874      8.39480         0.040721     -0.037009      0.014690
O	      2.25909      6.43261      6.42992        -0.053311     -0.000120     -0.044262
O	      4.34967      8.43202      6.32831         0.007259      0.150321     -0.013220
O	      4.25498      6.46787      8.50048        -0.000487      0.125576     -0.059735
O	      6.46832      8.71989      8.42703        -0.089511      0.041711      0.022478
O	      6.21327      6.44893     10.56666         0.062851     -0.001078     -0.019646
O	      8.57163      8.72958     10.42329        -0.012555      0.011954      0.127601
