# total energy = -242.70557066 eV
 
CRYSTAL
PRIMVEC
-0.002917 6.242699 6.370037 
6.363544 0.003963 6.363213 
4.243299 4.158138 0.001686 
PRIMCOORD
36 1
Li	      2.10550      2.06398      0.05810        -0.015232      0.004059      0.022621
Li	      6.31007      4.15227      2.11339        -0.020967      0.008851      0.000142
Li	      4.22242      2.17344      2.13341         0.024245      0.014503      0.023861
Li	      2.18104      4.09968      2.06452         0.014460     -0.004597     -0.058085
Li	      4.26586      4.15249      4.29210         0.002780      0.038816      0.070408
Li	      4.28753      2.11339      6.32517         0.036118     -0.005808      0.025790
Li	      6.29147      4.16037      6.35056        -0.077892      0.010535     -0.002347
Li	      4.25415      8.28895      4.24047        -0.019890      0.000915     -0.024933
Li	      2.16663      4.21064      6.34275         0.006922      0.011978      0.009251
Sc	      8.41973      4.12974      4.31695         0.097684     -0.071285     -0.012075
Sc	      6.42649      6.19239      8.41685        -0.025621     -0.011852      0.036888
Ti	      2.13828      2.22852      4.21890        -0.037796      0.305860     -0.115090
V	      4.25632     10.28010      6.40839         0.044864     -0.042029     -0.024866
V	      0.02568      2.04600      2.09731         0.008871      0.012769      0.047473
V	      4.17855      6.26859      6.36655        -0.100090      0.078104     -0.002679
Fe	      6.31434      2.16142      4.27782        -0.047052     -0.023049      0.027768
Fe	      4.21580      4.15361      8.44837         0.027336      0.029840      0.058950
Ni	      2.14763      6.19777      4.26417         0.044691     -0.083351     -0.040681
O	      2.00403      2.09927      2.28107         0.088985     -0.028383      0.081160
O	      4.26126      4.23001      1.97657        -0.028643     -0.093694     -0.005539
O	      4.08373      2.09440      4.26023        -0.086807     -0.003637      0.009370
O	      6.38594      4.28681      4.31093        -0.014454      0.099084      0.017239
O	      6.38405      1.87841      6.34140        -0.000380      0.002569      0.080143
O	      8.65838      4.11505      6.33575        -0.016683     -0.004270      0.014135
O	      2.12711      4.09069      4.23844         0.021069     -0.294740      0.005038
O	      4.29656      6.24389      4.25789         0.117380     -0.006196     -0.061601
O	      4.21240      4.29659      6.47838         0.017115     -0.001827     -0.145838
O	      6.23076      6.29780      6.32669         0.001259     -0.042778     -0.005322
O	      6.28990      4.09931      8.43527         0.008310      0.040579     -0.027531
O	      8.53668      6.25872      8.49040        -0.032010     -0.039740     -0.115105
O	      2.12639      6.25943      6.31332         0.064396     -0.000048      0.151697
O	      4.25172      8.41676      6.40268         0.003735     -0.010170      0.003141
O	      4.30178      6.21476      8.48801        -0.000610      0.035686      0.063934
O	      6.44016      8.26507      8.58480        -0.060581     -0.004807     -0.147061
O	      6.38223      6.19607     10.64228        -0.123850     -0.044787      0.008057
O	      8.48367      8.29365     10.49844         0.078339      0.122898      0.031689
