# total energy = -235.41078701 eV
 
CRYSTAL
PRIMVEC
0.032239 6.317943 6.313861 
6.364822 0.036863 6.309442 
4.275141 4.241537 -0.007340 
PRIMCOORD
36 1
Li	      4.33722     10.52110      6.33915         0.014379      0.014807      0.006719
Li	      6.48285     10.54302      8.43491        -0.044565      0.029651     -0.006837
Li	      4.37345      8.33287      8.40068         0.036803      0.034638     -0.000001
Li	      4.29184      6.42584     10.36455         0.029880     -0.032517      0.030345
Li	      6.38563      6.39942      4.22411        -0.034633      0.048975     -0.032738
Li	      8.43570      6.40581      6.30203        -0.028004     -0.009679      0.060895
Li	      0.08867      4.21543      4.24740         0.060023      0.085388     -0.018270
Li	      6.31178      8.36621      6.33242        -0.012006      0.015173     -0.067680
Li	      6.31601      6.45260      8.34384         0.012428      0.002318     -0.017290
Sc	      6.43754      4.37791      6.25628         0.055065      0.007296      0.050461
Sc	      4.22782      4.28992      8.41017        -0.021614      0.034387      0.039726
Ti	      2.30141      8.36072      6.38955         0.075761     -0.166647      0.158179
V	      8.51893      4.28324      8.41898        -0.134608      0.003532     -0.024482
V	      6.40112      8.34585     10.50423        -0.142337      0.249887     -0.008019
V	      4.22135      4.18933      4.18585         0.036324     -0.056968     -0.073474
Ni	      4.28715      6.31864      2.08394         0.057288      0.025254     -0.056196
Ni	      2.15119      6.31160      4.22700         0.012801     -0.000259     -0.032355
Ni	      4.31513      6.38261      6.33966         0.012543     -0.024309      0.011379
O	      2.08365      2.13505      1.98904         0.168457     -0.026260     -0.282162
O	      4.15760      4.27405      2.21458         0.073358     -0.214929      0.016975
O	      4.35144      2.29192      4.21795         0.042355      0.050510      0.017895
O	      6.27097      4.11006      4.20515        -0.028749      0.023468     -0.015673
O	      6.51403      2.18833      6.23065         0.054398      0.004226     -0.047100
O	      8.50637      4.19394      6.40785         0.004675     -0.124277     -0.152987
O	      2.22132      4.22783      4.12672         0.056310     -0.088163      0.177979
O	      4.25412      6.12303      4.21153         0.092844     -0.056901      0.056643
O	      4.29106      4.24818      6.26938         0.013623     -0.089545     -0.031383
O	      6.38053      6.36004      6.25287         0.072556     -0.042548      0.053501
O	      6.44550      4.20050      8.41181        -0.056186      0.087731     -0.011288
O	      8.59464      6.37034      8.46448        -0.135901      0.016063     -0.048249
O	      2.18769      6.45015      6.27120        -0.054166      0.284276      0.074200
O	      4.16975      8.45398      6.25273        -0.232029      0.098947     -0.009841
O	      4.28629      6.29738      8.39144        -0.004335      0.007117      0.122763
O	      6.44593      8.46886      8.55521         0.035413      0.022439     -0.034636
O	      6.40525      6.56507     10.56042        -0.121819     -0.261852      0.016469
O	      8.42851      8.49578     10.56125         0.033668      0.048767      0.076534
