# total energy = -214.59265779 eV
 
CRYSTAL
PRIMVEC
0.073769 6.317448 6.311119 
6.298718 0.031382 6.354535 
4.201603 4.242583 0.018461 
PRIMCOORD
36 1
Li	      0.17689      6.22349      6.31288         0.003128      0.048549      0.050998
Li	      8.49077      8.51175     12.60870         0.006134     -0.023732     -0.021290
Li	      1.98466      0.07182      1.99050        -0.026134     -0.000737      0.014201
Li	      6.48590      8.43732     10.61090         0.087085     -0.027479     -0.035184
Li	      2.17178      4.18398      2.13805         0.018542      0.026298      0.020855
Li	      6.28593      4.33990     10.57591         0.019207     -0.010790     -0.058496
Li	      2.13856      6.29768      4.36960        -0.030374      0.014416     -0.028468
Li	      2.05114      4.29235      6.28679        -0.003696      0.068723      0.029109
Li	      4.08682      6.42606      6.31593        -0.087381      0.036355      0.047917
Sc	      6.23866      6.39546      4.26695        -0.077633      0.071729     -0.141198
Sc	      4.32404      2.05654      6.28708         0.218641     -0.203674      0.204269
Sc	      8.38680      8.54390      8.50088        -0.100184      0.098434      0.332737
Mn	      6.34890      6.34870      8.46433        -0.064159      0.108117      0.369253
Co	      4.27079      8.46665      8.39861         0.006182      0.188964     -1.830948
Cu	      4.18811      4.25213      4.24573         0.194927      0.280455     -0.262971
Ni	      8.50261     10.53836     10.58021        -0.124662     -0.207209     -0.017213
Ni	      0.07902      2.05376      2.09027         0.037178     -0.143914     -0.134277
Ni	      6.36138      4.21248      6.34209         0.150360     -0.124621     -0.023329
O	      2.15709      6.31127      6.34896        -0.013332     -0.018183     -0.066779
O	      2.26620      2.11013      2.16132        -0.502961     -0.023069      0.209448
O	      4.21142      4.10766      2.23815         0.067936      0.873928      0.495263
O	      4.21271      2.07930      4.14175         0.009393      0.119017      0.259059
O	      6.27633      4.24663      4.29141         0.042313      0.080565      0.007592
O	      6.35799      2.13682      6.49253        -0.114545      0.039843     -0.237396
O	      8.41006      4.27370      6.27886         0.094238      0.163361      0.057034
O	      2.22052      4.19727      4.27443        -0.300371     -0.148719      0.054625
O	      4.23177      6.32590      4.05407        -0.153887     -0.136384      0.490919
O	      4.27961      4.22959      6.30888        -0.053964     -0.067457     -0.044477
O	      6.37836      6.32116      6.42492        -0.060242      0.067731     -0.007813
O	      6.29948      4.36139      8.40342         0.049923      0.100654      0.052692
O	      8.31726      6.42783      8.40347         0.012645     -0.029706     -0.119531
O	      4.26318      8.46799      6.59586        -0.034474     -0.168543      0.508827
O	      4.38772      6.43600      8.46411         0.205235     -0.816988      0.100290
O	      6.25058      8.31815      8.43989         0.372784     -0.262100      0.073128
O	      6.32447      6.34152     10.34237         0.155680      0.010969     -0.199126
O	      8.46253      8.54043     10.50425        -0.003534      0.015194     -0.149721
