# total energy = -214.02116163 eV
 
CRYSTAL
PRIMVEC
0.021750 6.291354 6.145080 
6.422216 -0.017229 6.183738 
4.239867 4.178378 0.030429 
PRIMCOORD
36 1
Li	      6.44876      0.10106      6.20370         0.078476     -0.015470     -0.011822
Li	      2.00387      2.01093      0.05729        -0.140174      0.003802     -0.000166
Li	      8.51821      4.14772      4.20349        -0.039725     -0.041090      0.010827
Li	      6.45719      8.31584     10.35259         0.006110      0.014377      0.024275
Li	      4.29126      6.14531      2.11422        -0.022036      0.033482      0.028195
Li	      6.28198      6.16798      4.13319        -0.061361      0.027030      0.029827
Li	      4.37816      4.35865      4.05001         0.031743      0.017376      0.032212
Li	      8.53503      6.32926     10.27569        -0.010474     -0.060965     -0.033327
Li	      4.22322      6.29044      6.10937         0.039040      0.040240     -0.020497
Sc	      4.22790      2.08501      2.19739        -0.027814      0.028356     -0.030575
Sc	      4.17184      8.27164      4.18314         0.058680     -0.052235      0.083102
Sc	      2.25349      4.29318      6.01774        -0.178877      0.013901     -0.097067
Mn	      8.52963      8.38805      8.27841         0.035641     -0.020658      0.081233
Co	      2.17870      4.14341      2.07115         0.372196     -0.136493      0.105134
Ni	      6.33908      4.23056      2.13467        -0.010504      0.022283     -0.025129
Ni	      4.33252      2.06842      6.12112         0.702542     -0.168932     -0.648496
Ni	      6.42163      4.14056      6.09747        -0.018215      0.012326     -0.069881
Ni	      6.43887      6.26082      8.23647        -0.109229      0.078846     -0.059618
O	      2.17112      2.12536      2.06113         0.016406      0.128364      0.013164
O	      4.26684      4.13506      2.08069        -0.164079      0.002653      0.003389
O	      4.26021      2.05049      4.21317        -0.110600     -0.012262     -0.129803
O	      6.40334      4.18642      4.07587         0.006502     -0.063732      0.074596
O	      6.20952      2.14684      6.16100         0.530448     -0.046504      0.227955
O	      8.48106      4.17741      6.39310        -0.017921      0.133606     -0.035633
O	      2.09257      4.22827      3.98197        -0.060673     -0.025945     -0.161908
O	      4.23015      6.29968      4.14221        -0.017307     -0.006399     -0.053653
O	      4.33098      4.19281      6.29890        -0.055274     -0.081925     -0.080218
O	      6.61434      6.25176      6.27932        -0.666024      0.043849      0.096400
O	      6.26644      4.24130      8.18091        -0.079808     -0.132069      0.037608
O	      8.46805      6.35070      8.13931        -0.065079      0.112754      0.443198
O	      2.14590      6.29888      6.28564         0.042605     -0.014667     -0.128698
O	      4.43157      8.32584      6.21961        -0.041072      0.086637      0.023834
O	      4.31428      6.16190      8.21089        -0.047069     -0.069863      0.027126
O	      6.53805      8.36361      8.21088         0.083108      0.018210      0.051790
O	      6.41138      6.22822     10.11634        -0.000155      0.090987      0.244656
O	      8.53595      8.33375     10.15015        -0.060026      0.040131     -0.052028
