# total energy = -218.29258170 eV
 
CRYSTAL
PRIMVEC
0.012226 6.156614 6.322008 
6.392694 0.002329 6.331585 
4.258921 4.108419 0.004600 
PRIMCOORD
36 1
Li	      6.42567      6.17622     12.63346         0.013870     -0.026662      0.003522
Li	      2.21495      6.08422      8.37353         0.057431     -0.008358     -0.034417
Li	      8.46766      4.12267      4.21962        -0.015457     -0.038164     -0.031892
Li	      8.55825      6.11221      6.36956         0.040784     -0.006823      0.009683
Li	      6.41209      4.14738      6.34120         0.022596      0.006479      0.027912
Li	      8.45896      6.17590     10.57402        -0.061804     -0.018867     -0.010175
Li	      2.13301      4.18190      6.34582        -0.012507      0.003806     -0.000798
Li	      4.24203      6.14216      6.35011        -0.055695      0.019163      0.071508
Li	      6.46823      6.12449      8.39882        -0.008765      0.011319     -0.035072
Sc	      8.48115      8.11558     12.56003         0.020367     -0.053798     -0.024047
Sc	      4.38055      8.13025      8.36000         0.094863     -0.121819     -0.045361
Sc	      4.28300      4.16129      4.39999        -0.023609     -0.015481      0.054226
Mn	      8.50294      4.17522      8.40342        -0.035869      0.104341      0.011008
Co	      6.41147      4.23482     10.57878        -0.081278      0.318735      0.000047
Co	      4.19173      4.18938      8.36973        -0.036676      0.093604     -0.042657
Cu	      6.42245      6.13028      4.28509         0.041016      0.012876      0.010806
Ni	      6.37613      2.01590      4.25393         0.030997     -0.063253      0.018714
Ni	      6.36570      2.07319      8.38307         0.012160     -0.004353     -0.075361
O	      6.39185      6.17723      6.18417        -0.006273      0.004481      0.084712
O	      2.15009      2.16802      2.10832         0.035377      0.074503      0.061000
O	      4.06840      4.11528      2.18445        -0.027135     -0.073342     -0.010372
O	      4.25540      2.05158      4.16712        -0.008686      0.059217      0.069879
O	      6.33030      4.12608      4.18873        -0.007594     -0.093555      0.006682
O	      6.40928      2.05414      6.28598        -0.002244      0.011783     -0.014262
O	      8.49556      4.11067      6.55053         0.012784      0.024514      0.018050
O	      2.12295      4.08988      4.07712        -0.012490      0.054301     -0.051404
O	      4.38541      6.28150      4.15149        -0.055162      0.041093      0.098286
O	      4.23795      4.08738      6.41812         0.035339     -0.028373     -0.085917
O	      6.51848      4.10874      8.50024         0.128692      0.071184      0.029116
O	      8.56608      6.12887      8.45873        -0.073198     -0.073185     -0.015205
O	      2.12668      6.15544      6.35387         0.001014      0.064527     -0.038834
O	      4.23919      8.19967      6.32112        -0.008155     -0.025144     -0.064752
O	      4.29540      6.04728      8.43062         0.004629      0.003079      0.048687
O	      6.43795      8.17719      8.54926        -0.069817     -0.011283     -0.075699
O	      6.37482      6.04547     10.56898         0.018607     -0.327476      0.018360
O	      8.54930      8.19606     10.45832         0.031888      0.010932      0.014028
