# total energy = -218.98847452 eV
 
CRYSTAL
PRIMVEC
-0.001247 6.082014 6.661448 
6.169606 -0.001952 6.662169 
4.117995 4.060518 -0.006879 
PRIMCOORD
36 1
Li	      6.22459      8.11232     11.10114         0.013171      0.040165      0.005267
Li	      4.16424      6.08451      2.34495        -0.029895      0.026299      0.032066
Li	      2.03401      4.04021      2.37750        -0.004889     -0.012527     -0.012309
Li	      6.10423      6.06605      4.47697         0.000589      0.007525      0.023140
Li	      8.20291      6.09103      6.70721        -0.005528      0.038316      0.029964
Li	     10.22903      8.10473     11.07594         0.012388     -0.069244     -0.007140
Li	      8.31129      6.11030     11.00890         0.041971     -0.005187      0.002077
Li	      4.10162      6.09068      6.34471         0.005790     -0.030078      0.008037
Li	      6.23584      6.04762      9.08360         0.038162      0.010382     -0.001698
Sc	      6.12422      0.09328      6.55804        -0.012716      0.041574      0.195684
Sc	      4.09266      1.98935      2.26914         0.035024      0.039941     -0.034902
Sc	      2.12396      3.96160      6.53672         0.114901     -0.084215     -0.028308
Mn	      6.14875      4.10214      6.69226        -0.177703      0.018080      0.173321
Co	      8.23366      2.03634      6.65543        -0.045990     -0.004935      0.050626
Co	      4.14494      4.01723      8.83638         0.005955      0.073764     -0.017457
Cu	      8.24325      4.05597      4.46469        -0.151458      0.134198     -0.140536
Cu	      4.11812      4.07035      4.38974         0.004325     -0.074501      0.034098
Ni	      2.00617      6.08995      8.81662         0.013652     -0.059904      0.004352
O	      4.13394      5.93531      4.37648         0.005072      0.180785      0.013928
O	      8.23827      6.35536      8.94711        -0.007223     -0.016925      0.001835
O	      2.07150      1.98958      1.97581         0.044920      0.123701     -0.092643
O	      4.11062      4.02110      2.03613        -0.126093     -0.040498     -0.138675
O	      4.10009      2.07749      4.32116         0.026585     -0.140421     -0.036055
O	      6.08150      4.06114      4.65693         0.196952     -0.010520      0.048662
O	      6.27459      2.15829      6.66083         0.074949     -0.039788     -0.010182
O	      8.08903      4.00532      6.73770         0.080089     -0.069406     -0.104126
O	      2.18169      4.04991      4.48109        -0.096271     -0.010379      0.009563
O	      4.22070      4.04121      6.77574         0.053089     -0.024449     -0.063141
O	      6.20125      5.99665      6.64353        -0.014689     -0.019660     -0.053097
O	      6.06577      4.10049      8.66405        -0.045861      0.022511     -0.047854
O	      2.04435      6.13835      6.68540        -0.048699      0.113640     -0.136253
O	      4.10124      8.09982      6.69185        -0.078320      0.031981      0.001820
O	      4.04109      5.88136      8.97729         0.158805     -0.097354      0.198684
O	      6.24931      8.11935      8.78028        -0.016901     -0.108951     -0.036549
O	      6.09856      6.08396     11.17859        -0.055459      0.027154     -0.049781
O	      8.23724      8.19837     11.36868        -0.008692     -0.011075      0.177583
