# total energy = -103.80642419 eV
 
CRYSTAL
PRIMVEC
2.138296 4.148165 2.079413 
4.205985 -2.042256 -2.073066 
0.021844 4.133817 -4.151675 
PRIMCOORD
16 1
Li	      2.16588      4.14279      2.03715        -0.004007      0.009640     -0.019678
Li	      2.11936      2.07569      0.00824        -0.001288      0.006770      0.017254
Li	      0.01207      2.04442     -2.05005        -0.000848     -0.003788      0.019332
Li	      2.10406      2.08797     -4.14372         0.000925     -0.008002     -0.013175
Ti	      2.08988      4.05000     -2.04387        -0.124312     -0.094466      0.054562
Ti	      4.30009      4.27363     -4.20332         0.148359      0.147429     -0.124341
Ni	      2.08902      0.01958     -2.03456        -0.025148     -0.005649      0.006849
Ni	      4.25153      2.09193     -2.07146         0.026849     -0.021797     -0.006889
O	      2.13715      2.12972     -2.08104        -0.059865      0.266702      0.012425
O	      4.14390      4.16341     -2.11948        -0.062579      0.100979     -0.118565
O	      2.24880      4.12388     -4.07601         0.066556     -0.001286      0.152410
O	      4.26873      2.04335     -0.00282        -0.022203     -0.283232      0.100704
O	      4.13868      0.04528     -1.97100         0.119867     -0.104101      0.189572
O	      2.17275      4.14029     -0.10647        -0.040009     -0.004322     -0.171126
O	      4.35973      2.15968     -4.13719         0.167091      0.032023     -0.111293
O	      1.99882      6.12107     -2.07625        -0.189387     -0.036900      0.011958
