# total energy = -217.67120055 eV
 
CRYSTAL
PRIMVEC
0.032992 6.269412 6.329339 
6.277419 0.035095 6.327436 
4.194400 4.187544 0.014019 
PRIMCOORD
36 1
Li	     10.38746      4.20948      6.28876         0.007687      0.025209      0.154196
Li	      4.30331      8.35046      8.44839        -0.158727      0.000169      0.073122
Li	      4.34800      6.27201     10.60295        -0.217777      0.199343      0.065522
Li	     10.33397      6.27833      8.46737         0.101983     -0.111558      0.003438
Li	      8.38866      6.29048      6.42807        -0.070064     -0.028995     -0.043709
Li	      8.27955      6.36093     10.49238         0.119979     -0.063973     -0.025963
Li	      6.28771      8.29319      6.41603         0.050642     -0.070092      0.010834
Li	      8.38756      8.40052      8.49375        -0.028907      0.012567     -0.151993
Li	      6.32659      6.33078      8.56154         0.004870      0.058372     -0.212833
Sc	      2.16207      6.28082      8.37096        -0.056703      0.497705      0.079083
Sc	      4.07555      4.19855      4.25462         0.048091     -0.094492     -0.059187
Sc	      6.28362      4.20080      6.50655         0.092366      0.250917     -0.422863
Mn	      6.35946      8.26042     10.52956         0.064246      0.048351      0.103713
Co	      2.14418      2.12058      4.21852        -0.531835     -0.058362      0.190659
Co	      6.25936      4.26238     10.51358        -0.032335      0.353283     -0.142740
Ni	      8.45645      8.41654     12.56404        -0.257651     -0.040776      0.412104
Ni	      2.13101      4.18449      2.11575         0.248886     -0.335328     -0.125157
Ni	      4.21578      6.34433      6.30205         0.206757     -0.165418     -0.045303
O	      8.38696      6.09588      8.37818        -0.031092      0.222437      0.107079
O	      2.12522      2.16582      2.29997         0.029422      0.177164     -0.202056
O	      4.21712      4.22036      2.18607         0.033878     -0.010909     -0.038773
O	      4.18798      2.12533      4.27701        -0.355172     -0.038441     -0.050843
O	      6.25921      4.21881      4.24097         0.053604      0.403763      0.091282
O	      6.40929      2.12241      6.14606        -0.316764     -0.143651     -0.194349
O	      8.37704      4.07465      6.44370        -0.119733      0.628848      0.072705
O	      1.97338      4.16129      4.18161         0.771226     -0.850747      0.099316
O	      4.24719      6.39045      4.35406         0.804750     -0.676162     -0.155571
O	      4.21527      4.22873      6.31034         0.012141     -0.078962      0.075603
O	      6.23240      6.28710      6.14092        -0.100262     -0.008024      0.137847
O	      6.32604      4.16550      8.54740        -0.290070     -0.086465      0.162967
O	      2.24461      6.42443      6.32829         0.015361     -0.618781     -0.015279
O	      4.13301      8.39086      6.11161         0.744697      0.142279      0.275171
O	      4.22534      6.34972      8.17662         0.089670     -0.073608      0.225564
O	      6.34135      8.41597      8.62380         0.067276     -0.241226      0.079799
O	      6.28963      6.24327     10.54251         0.043806      0.846412     -0.023244
O	      8.48331      8.42405     10.53085        -1.044247     -0.070849     -0.510141
