# total energy = -222.20318636 eV
 
CRYSTAL
PRIMVEC
0.039391 6.325817 6.269062 
6.300477 0.077837 6.230926 
4.223429 4.214607 0.028471 
PRIMCOORD
36 1
Li	      8.26245      2.35423      6.24054         0.049017     -0.109594     -0.091799
Li	      4.30497      8.41186      8.38356        -0.064973     -0.011974      0.015571
Li	      8.36644      4.30148      4.22776        -0.031788      0.012568      0.027489
Li	      6.24829      2.20404      4.27637         0.012887     -0.016127     -0.002472
Li	      8.33840      4.23479      8.15889         0.028078     -0.031557      0.019424
Li	      4.25787      2.14405      6.18510        -0.063151      0.020180     -0.047166
Li	      6.48316      4.07569      6.28441        -0.051997      0.099076     -0.182652
Li	     10.48637      8.52809     10.41113        -0.033810      0.000149      0.113879
Li	      4.29318      6.41525      6.33030        -0.028278      0.043123     -0.044199
Sc	     10.36676      4.31714      6.22888        -0.059788     -0.220822     -0.160196
Sc	      2.20728      6.33715      8.36462         0.037231      0.299933      0.046817
Sc	      2.19029      2.17293      4.21942         0.176976     -0.001859     -0.147738
Mn	      8.47459      6.43873     10.40650        -0.269260      0.162767      0.124227
Co	      6.29573      2.21185      8.30431         0.440676      0.000864     -0.908744
Co	      6.37051      8.45410      6.31053         0.130091      0.028598     -0.292168
Co	      8.45380      8.44062      8.34384         0.571893      0.263287      0.022228
Ni	      4.25698      4.21651      4.20444        -0.015179     -0.053307      0.265323
Ni	      6.28785      6.31493      8.34301         0.224994      0.073156      0.059955
O	      1.97129      2.10690      2.11111         1.025691     -0.123476      0.291646
O	      4.25369      4.37918      2.10295        -0.059250     -0.116494     -0.013629
O	      4.17853      2.19859      4.10193        -0.004215     -0.181420      0.014567
O	      6.29694      4.30831      4.16466         0.159745      0.001848     -0.016755
O	      6.29728      2.15279      6.37316        -0.135687      0.044803     -0.074681
O	      8.43033      4.26286      6.21029         0.002262      0.064422      0.044869
O	      2.17773      4.33620      4.31963        -0.179359      0.057036     -0.006609
O	      4.14752      6.31177      4.09423        -0.108303      0.140845      0.305324
O	      4.01825      4.25730      6.35531        -0.353752     -0.030785     -1.135125
O	      6.33766      6.57404      6.32539        -0.049778      0.003042     -0.016364
O	      6.15545      4.18220      8.29509         0.014596      0.090932     -0.056543
O	      8.52557      6.46949      8.47459        -1.181076     -0.184348      0.335471
O	      2.16153      6.22817      6.16559         0.040938     -0.054280     -0.008856
O	      4.48885      8.49035      6.34493         0.038090     -0.046627      0.069598
O	      4.25491      6.17694      8.37311         0.017109      0.086666      0.049556
O	      6.46546      8.42310      8.23284        -0.171547      0.105550      0.049278
O	      6.54686      6.39900     10.37270         0.065601     -0.069744      0.084024
O	      8.46036      8.31306     10.30909        -0.174683     -0.346433      1.266453
