# total energy = -224.23946848 eV
 
CRYSTAL
PRIMVEC
-0.041304 6.487534 6.208307 
6.120362 -0.061479 6.228464 
4.044596 4.304375 -0.005509 
PRIMCOORD
36 1
Li	      4.12302      8.38255      8.35915         0.031400     -0.025724     -0.028832
Li	      4.04220      0.13854      4.07862         0.030288     -0.061762      0.054464
Li	      5.96024      2.24638      4.18572         0.026633      0.018263      0.030974
Li	      4.07724      4.17038      4.20461        -0.077358     -0.040283      0.032522
Li	      4.01390      2.24925      6.11035         0.038752      0.015732      0.088370
Li	      6.14183      4.18886      6.12710        -0.057024     -0.074415      0.083288
Li	      4.02824      8.61896      4.17453         0.019302      0.022957      0.025592
Li	      4.01780      6.45580      6.32240        -0.026958     -0.044559     -0.008897
Li	      5.98888      6.53103      8.28169         0.083258     -0.035524      0.018322
Sc	      6.12495      6.44257     12.33280        -0.033416     -0.065700     -0.051000
Sc	      6.10666      6.34958      4.20309         0.014558      0.201452     -0.385138
Sc	      4.05136      4.35629      8.34285         0.075406     -0.268688     -0.089162
Mn	      8.11294      4.28489      8.30081        -0.067165      0.013653     -0.082347
Co	      2.01646      8.65995      6.20176         0.117470      0.030401      0.019059
Co	      6.10465      2.12712      8.26068         0.049027      0.057758     -0.021106
Co	      2.04119      6.49662      4.11814         0.018256     -0.049623     -0.157813
Co	      6.03521      8.42338      6.24643         0.025502     -0.232782      0.084015
Cu	      6.08956      4.21022      2.16084        -0.067494      0.078060     -0.159404
O	      1.95232      2.35261      1.97387        -0.107159      0.090024      0.072092
O	      3.98205      4.54989      2.03996         0.248857     -0.054889      0.151646
O	      4.03019      2.11070      4.13888        -0.067698     -0.058403      0.048672
O	      6.04934      4.32395      4.09804        -0.005705     -0.097160     -0.074000
O	      6.24818      2.09205      6.32539         0.007915      0.070531     -0.032799
O	      8.14071      4.08314      6.34238         0.034292      0.033183     -0.022878
O	      2.00583      4.33407      4.05865         0.030414      0.091548      0.174411
O	      3.89499      6.50722      3.96441         0.020227      0.034685     -0.039470
O	      3.84082      4.26892      6.27698         0.009160     -0.060493     -0.021447
O	      6.00126      6.44995      6.19139        -0.033831      0.723013      0.302918
O	      6.18340      4.09840      8.26915        -0.301724     -0.036974     -0.055205
O	      8.21907      6.27770      8.24689         0.005834      0.014880      0.018799
O	      2.06078      6.72183      6.27593         0.007387     -0.054147      0.241833
O	      4.08567      8.72927      6.24345        -0.074620      0.000807      0.040641
O	      3.97475      6.34639      8.34806         0.009037      0.118814      0.075977
O	      6.05115      8.53288      8.14500        -0.056853     -0.250183     -0.379100
O	      6.28584      6.41562     10.31630         0.072633      0.013433      0.012018
O	      8.12077      8.46857     10.49918         0.001394     -0.117884      0.032983
