# total energy = -225.47979233 eV
 
CRYSTAL
PRIMVEC
0.072054 6.234935 6.337800 
6.307949 0.057817 6.353060 
4.201330 4.163527 0.041276 
PRIMCOORD
36 1
Li	      0.18313      6.29527      6.33347        -0.026257     -0.002583      0.020784
Li	      2.17002      6.21841      8.33633        -0.004909     -0.008854     -0.021333
Li	      6.45751      8.31486     10.59640         0.039582      0.018207     -0.076639
Li	      8.43453      4.23539      8.49298         0.006091     -0.051311      0.003515
Li	      4.15309      4.22391      4.33051        -0.006642     -0.019324     -0.002076
Li	      2.13259      6.23532      4.41925        -0.041376      0.017328     -0.057732
Li	      2.36300      4.17049      6.37878        -0.043142      0.004805     -0.000420
Li	      4.07746      6.12644      6.30235         0.023669      0.018253      0.025911
Li	      4.12897      4.20366      8.31188        -0.008695      0.012580      0.039837
Sc	      4.31124      8.41523      8.39654         0.043478     -0.052293     -0.077152
Sc	     10.49149      6.22547      8.45354         0.024717     -0.003617      0.009644
Sc	      0.09951      4.15310      4.26427         0.067524     -0.002022      0.044159
Mn	      8.39962      4.20624      4.29990         0.031323      0.042808     -0.057101
Co	      2.14975      8.28794      6.35400         0.009829     -0.068739      0.033570
Co	      6.32840      6.27236      4.32269        -0.014186      0.037947      0.000521
Co	      8.42451      6.29978      6.40463         0.092312      0.026510     -0.012251
Co	      6.37220      6.28480      8.48329         0.021891      0.049004     -0.003575
Ni	      6.28264      4.22701      6.39675        -0.038207     -0.053072     -0.023586
O	      2.09029      2.09692      2.00154        -0.040057     -0.027664     -0.085433
O	      4.21340      4.17165      2.17744        -0.022378      0.024779      0.007519
O	      4.10409      2.01498      4.34870        -0.048750      0.014482      0.007271
O	      6.47575      4.37873      4.26746         0.071569     -0.073106     -0.042027
O	      6.30409      2.16794      6.33191        -0.030737     -0.142301      0.019474
O	      8.39163      4.23277      6.22604         0.115366      0.037952     -0.039588
O	      2.12784      3.99278      4.28922        -0.020771      0.001364      0.013159
O	      4.34956      6.25068      4.23637         0.099859     -0.087620     -0.018838
O	      4.30008      4.03831      6.32112        -0.178557     -0.070177      0.028424
O	      6.51875      6.24982      6.50913        -0.025480      0.073481      0.082876
O	      6.33741      4.26339      8.50575         0.018981      0.093942      0.071043
O	      8.35658      6.27360      8.34657        -0.074078     -0.016750      0.026973
O	      2.14976      6.39937      6.31797        -0.009339      0.050433     -0.017832
O	      4.08128      8.31866      6.37065         0.042571      0.085595     -0.037587
O	      4.39794      6.26465      8.65183         0.026560      0.021224      0.051920
O	      6.33723      8.21990      8.47916        -0.050972     -0.039868      0.037717
O	      6.25244      6.29735     10.45549        -0.057504      0.056563      0.038477
O	      8.45171      8.51614     10.76645         0.006715      0.032045      0.010376
