# total energy = -227.17465107 eV
 
CRYSTAL
PRIMVEC
0.026793 6.397748 6.135862 
6.378999 0.035423 6.126918 
4.270381 4.276774 0.006899 
PRIMCOORD
36 1
Li	      6.32380      4.30724      2.16258         0.007815     -0.091743     -0.009145
Li	      4.17297      0.09067      3.99303         0.022953     -0.066976      0.024661
Li	      6.36945      2.22322      4.03658        -0.003972     -0.030765      0.048155
Li	      4.31726      4.18833      4.09296         0.023984      0.067159     -0.005517
Li	      4.21942      2.24441      6.12298         0.032946      0.015125      0.061342
Li	      6.37957      4.31913      6.09351        -0.019864      0.012386      0.027884
Li	      6.44788      4.34303     10.11942        -0.002640      0.008481     -0.031115
Li	      8.45361      6.40376     10.16671        -0.045814      0.021072      0.045010
Li	      2.22487      4.20860      6.13129         0.062871     -0.008596      0.052588
Sc	      6.40942      6.43662     12.14476         0.025838      0.116896     -0.258297
Sc	      8.44355      2.21595      6.04033        -0.129983      0.014334     -0.504571
Sc	      4.27263      6.35845      6.10442         0.095599     -0.328924      0.006137
Mn	      6.45129      6.36401      4.09474         0.002420     -0.071759      0.339055
Co	      4.39716      8.54676      8.22465        -0.638406     -0.069979      0.379546
Co	     10.59572      6.45162      8.22802        -0.188900      0.209329     -0.175944
Co	      2.12828      4.26268      2.09899        -0.167593      0.232886     -0.017876
Co	      8.51228      8.52390      8.25017         0.225248      0.360515     -0.260868
Co	      6.45386      6.40781      8.23719         0.103304      0.145142      0.055180
O	      2.16478      2.13865      2.13291         0.668263     -0.045645     -0.167494
O	      4.14491      4.25944      2.04836        -0.021515     -0.827070     -0.013127
O	      4.11387      2.15211      4.02360         0.256096     -0.045147     -0.736527
O	      6.41005      4.48231      4.09407        -0.002649      0.144817     -0.062765
O	      6.40196      2.12018      6.20211         0.107920     -0.080932      0.009990
O	      8.56015      4.27911      6.30280         0.068071     -0.069855      0.017306
O	      2.14693      4.11399      3.95630         0.077205     -0.047203     -0.023657
O	      4.44574      6.40630      4.05157         0.096089     -0.063184      0.116871
O	      4.25568      4.31752      6.33055        -0.058119     -0.015940      0.330275
O	      6.38239      6.46251      6.04407        -0.054618     -0.025394     -0.185041
O	      6.47148      4.41347      8.16998         0.423197      0.096773     -0.042077
O	      8.41207      6.49941      8.21276        -0.026725      0.107499     -0.016534
O	      2.15862      6.46957      6.15126        -0.027207      0.006047      0.033156
O	      4.23422      8.54069      6.23934         0.226238      0.020308      0.433345
O	      4.51929      6.39338      8.18496        -0.029499      0.500913      0.034736
O	      6.42898      8.34357      8.21057        -1.133860      0.065476      0.007562
O	      6.41675      6.41598     10.13914         0.011483     -0.096769      0.223035
O	      8.52625      8.60935     10.13205         0.013825     -0.159276      0.264719
