# total energy = -220.50173560 eV
 
CRYSTAL
PRIMVEC
0.005985 6.371874 6.239451 
6.415334 0.009271 6.236343 
4.292327 4.261105 -0.009057 
PRIMCOORD
36 1
Li	      8.56873      8.52604     12.36196        -0.086075     -0.018524     -0.068535
Li	      4.27307      8.51143      8.26160         0.048903     -0.050135      0.028842
Li	      6.54497      8.34850     10.41480         0.032755     -0.034288     -0.003764
Li	      6.42740      2.24403      8.36705        -0.035456     -0.011255      0.037498
Li	      2.04237      4.13034      2.09616        -0.042640     -0.035544      0.039940
Li	     10.67836      8.53063     10.39013        -0.005449      0.035843     -0.043570
Li	      8.47635      6.53195     10.38608        -0.023097      0.074195     -0.012459
Li	      4.32733      6.52092      6.13754         0.050035      0.019721      0.001902
Li	      6.40841      6.36668      8.47577        -0.007884     -0.001398      0.032441
Sc	      2.20566      6.42140      8.14570         0.167549     -0.006014      0.243005
Sc	      4.21473      4.31189      4.03749         0.040924      0.018963      0.026273
Sc	      8.60159      6.30048      6.36913        -0.193295     -0.046727      0.097181
Mn	      6.39833      6.37976      4.13147         0.016449     -0.003962     -0.076825
Fe	      6.42514      4.18809      6.32988        -0.032614      0.046495     -0.108013
Co	      6.39660      8.53516      6.23382        -0.035827     -0.008992      0.030094
Cu	      4.33023     10.56859      6.24806         0.153456      0.149069     -0.325246
Cu	      4.34772      6.32391     10.40153        -0.028507      0.064267     -0.139655
Cu	      8.60445      8.51787      8.35181        -0.061064     -0.150910      0.024727
O	      4.52901      8.55699      6.26187         0.170863      0.095701      0.037287
O	      6.30199      6.38591     10.54051         0.399995      0.100743      0.421310
O	      8.55894      8.62651     10.29786        -0.120982     -0.241893      0.180736
O	      2.16810      2.11808      2.23101         0.009057      0.031180      0.117380
O	      4.35834      4.25084      2.03119        -0.087993     -0.045022     -0.185188
O	      4.10407      2.12357      4.18010        -0.142303      0.056625     -0.015361
O	      6.37032      4.39533      4.15696        -0.164066      0.083557      0.111579
O	      6.32742      2.21774      6.18815         0.252226      0.017928      0.053750
O	      8.41720      4.22274      6.19949        -0.109906     -0.071754      0.135138
O	      2.15559      4.07235      4.27238        -0.039836     -0.118550      0.006839
O	      4.49781      6.33799      4.13653         0.034871      0.021161      0.037372
O	      4.21366      4.19433      6.23242         0.043024     -0.011309     -0.133954
O	      6.44522      6.26806      6.08857        -0.079911      0.012047     -0.098754
O	      6.33038      4.29500      8.23859         0.102708     -0.074012      0.016422
O	      8.53915      6.47784      8.37620         0.037938     -0.093198     -0.081318
O	      2.28746      6.44040      6.16945        -0.136474     -0.008385     -0.109120
O	      4.29454      6.29435      8.43070        -0.033751      0.187551     -0.169412
O	      6.54675      8.54134      8.17038        -0.093623      0.016825     -0.108545
