# total energy = -102.72585052 eV
 
CRYSTAL
PRIMVEC
-0.001923 2.129019 2.100654 
3.994512 -0.002499 -0.000090 
-0.007366 8.927659 -8.811485 
PRIMCOORD
16 1
Li	      3.99078      0.17887     -0.08472        -0.000519     -0.021954     -0.001585
Li	      2.00616      2.22984     -0.00037         0.000251     -0.028149      0.009668
Li	      1.98466      6.83135     -4.69773        -0.001989      0.017639      0.004965
Li	      3.98359      6.83993     -6.67286        -0.000327     -0.004134     -0.009498
Ti	      3.90307      6.60568     -2.42070        -0.110428      0.127990     -0.113486
Ti	      1.90733      8.95313     -6.58268        -0.123274      0.158801     -0.044950
Ni	      0.00923      2.00062     -1.95304         0.003418      0.090928     -0.087005
Ni	      2.00264      4.27399     -2.16698         0.001503      0.046950     -0.027094
O	      0.00714      6.42369     -4.36478        -0.015270     -0.136156      0.156866
O	      2.00325      8.89808     -4.59997        -0.018487      0.026879     -0.079299
O	      0.01747      4.56337     -2.48303        -0.009208      0.085616     -0.097026
O	      2.01890      6.50569     -2.33452         0.142215      0.067558     -0.021821
O	      0.00889      2.18055     -0.00425        -0.000358     -0.137592      0.129068
O	      2.00436      4.42128     -0.18011         0.006665     -0.087039      0.068157
O	      0.02981      8.82459     -6.56529         0.156976     -0.007052      0.026421
O	      2.00883      8.71627     -8.57025        -0.031168     -0.200283      0.086621
