# total energy = -223.18537497 eV
 
CRYSTAL
PRIMVEC
0.025164 6.441115 6.366408 
6.211916 0.006235 6.385738 
4.110058 4.274164 0.036530 
PRIMCOORD
36 1
Li	      8.14853      2.29063      6.32523         0.029855      0.012280      0.034334
Li	      8.26628      4.14352      4.45671        -0.014156      0.071521      0.014516
Li	      6.18932      2.14467      4.43665        -0.047228     -0.094592      0.007507
Li	      6.20536      2.20780      8.37232         0.025007      0.038353     -0.023852
Li	      8.22992      4.45157      8.38708         0.030491      0.041276     -0.052640
Li	      8.33036      6.34564      6.43086        -0.002141     -0.066393      0.007875
Li	      6.25215      4.04711      6.44967        -0.007586     -0.087658      0.114520
Li	      4.21338      6.33229      6.35344        -0.005948     -0.015609      0.044474
Li	      4.21248      4.22593      8.43301         0.044192      0.012510     -0.083786
Sc	      4.01866      2.14782      2.12054        -0.031887     -0.008610     -0.127572
Sc	      8.35590      6.58604     10.59675        -0.196065     -0.068433     -0.097998
Sc	      6.22856      6.32810      8.42503         0.017035     -0.154008     -0.130069
Mn	      6.20663     10.67072      8.57113        -0.000111      0.021263     -0.011035
Fe	      4.15778      4.15726      4.39172         0.044571      0.050684     -0.065611
Co	      6.26472      4.35338     10.60755        -0.146393     -0.351999     -0.080304
Co	      2.09521      4.36099      6.36347        -0.039824     -0.040180      0.108738
Cu	      6.14770      0.07992      6.37084         0.002853      0.018285      0.013347
Cu	      6.14832      6.38241      4.38111         0.071152     -0.153716     -0.015878
O	      6.19663      1.96149      6.36206         0.056979      0.038732     -0.026525
O	      8.39292      4.28053      6.46930        -0.127661     -0.042480      0.007456
O	      2.01734      1.85658      2.18734        -0.088901     -0.070614      0.027777
O	      4.23284      4.22514      2.36295        -0.021588      0.041458      0.186116
O	      4.01141      2.20288      4.20460         0.036860     -0.080050      0.082003
O	      6.15171      4.13220      4.13074         0.083233     -0.158438     -0.043123
O	      2.07990      4.43694      4.42499         0.039008      0.130590      0.112378
O	      4.20671      6.60575      4.35137        -0.055935     -0.381554      0.089977
O	      4.06174      4.34764      6.29136        -0.090608      0.024188      0.062025
O	      6.18148      6.68734      6.36983        -0.004677      0.191642     -0.015604
O	      6.25842      4.31363      8.62211         0.042662      0.207536     -0.946976
O	      8.24263      6.45799      8.58767         0.058063      0.039114      0.060962
O	      1.94279      6.34689      6.51628         0.103314     -0.013381      0.028315
O	      4.22755      8.80138      6.28168         0.122177      0.111220      0.950574
O	      4.02603      6.49954      8.41465        -0.045328     -0.013405     -0.014866
O	      6.17946      8.66063      8.37581         0.038060      0.046742     -0.091684
O	      6.24844      6.32859     10.49107         0.081670      0.626766     -0.136228
O	      8.44962      8.58571     10.68539        -0.001146      0.076962      0.010859
