# total energy = -222.80343761 eV
 
CRYSTAL
PRIMVEC
0.023074 6.271212 6.329241 
6.308448 -0.014953 6.367135 
4.187049 4.187544 0.008582 
PRIMCOORD
36 1
Li	      6.23650      0.05316      6.28519        -0.041530     -0.024403     -0.039508
Li	      6.29824      4.17638      2.14998         0.012810      0.008785      0.044772
Li	      8.38958      4.26155      4.33863         0.117372     -0.020714      0.004362
Li	      6.17718      2.10641      4.26286         0.040683      0.015280     -0.037065
Li	      6.33587      6.24903      4.38705         0.063585      0.005244      0.039579
Li	      4.25071      1.98268      6.23909        -0.014848      0.014072      0.048664
Li	      6.31849      4.27677      6.24635         0.027110      0.058779     -0.027100
Li	      2.13100      4.12324      6.29268         0.026562     -0.046016     -0.021871
Li	      6.25992      6.31414      8.38549         0.081999      0.034622     -0.021247
Sc	      8.27760      2.07489      6.33783         0.229612     -0.008597     -0.061172
Sc	      4.29681      8.31594      8.54427        -0.058950     -0.007920      0.056457
Sc	      4.12236      4.21774      8.39771        -0.084023     -0.265385      0.010064
Mn	      0.07238      4.19154      4.23809        -0.051272      0.132011      0.028079
Fe	      8.41619      4.24849      8.40228        -0.074121      0.057260      0.133855
Co	      4.22141      6.25773      2.12661         0.088984     -0.141272     -0.045685
Co	      4.42429      4.14202      4.31261        -0.971300     -0.217034      0.180698
Ni	      2.10074      6.24211      4.25314        -0.043655      0.001666     -0.104230
Ni	      4.24218      6.25505      6.35505        -0.101688      0.011333     -0.003949
O	      6.11010      6.24128      6.38162         0.195108      0.049805      0.009310
O	      2.05454      2.16570      2.07698         1.082742      0.100394     -0.185236
O	      4.13803      4.27807      2.20948         0.119332     -0.095110      0.154003
O	      4.18592      2.14496      4.22375         0.270501      0.072374      0.026828
O	      6.18398      4.16202      4.24246         0.201513     -0.104344      0.024326
O	      6.29731      2.04394      6.53224         0.020098     -0.024821     -0.056413
O	      8.38376      4.15627      6.47656        -0.007247     -0.021494     -0.221638
O	      2.00209      4.19135      4.12659         0.068171     -0.117781     -0.016373
O	      4.18817      6.32625      4.10832         0.245383      0.078536      0.165211
O	      4.18492      4.29905      6.29999         0.141331     -0.012445     -0.222075
O	      6.35110      4.02641      8.63404         0.051448      0.290586      0.143734
O	      8.56992      6.26013      8.50619        -1.444285      0.047971     -0.071049
O	      2.28698      6.29147      6.29106        -0.120124      0.010658      0.068949
O	      4.22194      8.26294      6.22243        -0.036809      0.090491     -0.122401
O	      4.19897      6.28207      8.45177        -0.015508      0.047096      0.109809
O	      6.31943      8.33912      8.52257        -0.031238      0.002753     -0.058931
O	      6.37555      6.04635     10.60368        -0.130273     -0.090007      0.041124
O	      8.57045      8.34599     10.56180         0.142529      0.067628      0.026116
