# total energy = -230.66041270 eV
 
CRYSTAL
PRIMVEC
0.030268 6.251177 6.330861 
6.251578 0.043064 6.317408 
4.172237 4.163204 0.025180 
PRIMCOORD
36 1
Li	      8.40475      8.36351     12.56879        -0.025257      0.009635     -0.004574
Li	      6.25569      4.27217      2.23397        -0.086592      0.025222     -0.001751
Li	      4.09902      0.11519      4.21279         0.016507      0.020395      0.000971
Li	      6.23354      2.15699      4.25037         0.040698     -0.020456     -0.004058
Li	      8.32929      4.20184      8.45023        -0.022002      0.000661     -0.058668
Li	      2.10526      2.11214      4.14066        -0.033623      0.028171     -0.055900
Li	      4.16939      2.09574      6.29168        -0.010000     -0.018745      0.056276
Li	      4.20488      8.23937      4.24302         0.006419      0.023248     -0.078984
Li	      4.12996      6.34610      6.27417         0.030293     -0.018185      0.009823
Sc	      6.24975      6.32466     12.52963        -0.007064      0.062901      0.138467
Sc	      6.36556      4.23622      6.27624         0.113583     -0.054251      0.130996
Sc	      8.32500      8.39117      8.56473         0.227055      0.105030      0.097206
Mn	      4.09941      2.07265      2.13216         0.260031      0.133954     -0.031112
Fe	      4.16830      4.15404      4.25027         0.014906      0.152412     -0.173927
Co	      0.10388      2.07508      2.12982         0.247193     -0.144963     -0.208997
Co	      2.10631      6.21303      4.24069        -0.081710      0.001806      0.003147
Co	      6.28216      8.31899      6.36009        -0.093108      0.001874     -0.010968
Co	      6.29112      6.29369      8.48867        -0.199763     -0.288084      0.012794
O	      2.22421      2.07229      2.07984        -0.268520      0.007731      0.038132
O	      4.16257      4.06413      2.11448         0.031724     -0.334539      0.019044
O	      4.14537      2.17379      4.04148         0.013029     -0.158730     -0.076882
O	      6.14866      4.20064      4.26369         0.076496      0.022013      0.056827
O	      6.27933      2.12726      6.44690        -0.107241      0.134008      0.081462
O	      8.36156      4.23035      6.24129         0.008548      0.019508      0.015058
O	      2.13073      4.24299      4.38925        -0.044436     -0.022307      0.141324
O	      4.08142      6.16920      4.13520        -0.128678      0.075783     -0.024285
O	      4.10346      4.16263      6.31798        -0.052305     -0.026703      0.054706
O	      6.28570      6.35518      6.54209        -0.012200      0.090070     -0.074518
O	      6.24523      4.29200      8.42027        -0.086522      0.385969     -0.021383
O	      8.26261      6.28484      8.59560         0.020531     -0.049812      0.047456
O	      2.11914      6.10046      6.20222         0.033358     -0.074592     -0.100719
O	      4.31839      8.33723      6.48282         0.107608     -0.048482      0.084519
O	      4.29778      6.35929      8.51157         0.106788     -0.012307     -0.028855
O	      6.19943      8.25687      8.34993        -0.070409      0.017805     -0.040052
O	      6.40223      6.27931     10.45302         0.041950      0.015139      0.055979
O	      8.36603      8.21020     10.55304        -0.067284     -0.061177     -0.048558
