# total energy = -218.08374258 eV
 
CRYSTAL
PRIMVEC
0.040728 6.294470 6.303725 
6.354021 -0.006912 6.351862 
4.236980 4.229585 -0.005625 
PRIMCOORD
36 1
Li	      4.26738      8.32879      8.45643        -0.023704     -0.006989      0.028637
Li	      8.33951      4.16872      4.24788        -0.092389     -0.085516      0.053021
Li	      6.43251      8.47863     10.46293        -0.044931      0.000793     -0.028342
Li	      6.39746      6.25231      4.24029         0.010953     -0.022842     -0.003107
Li	      4.23788      2.08324      6.24116         0.014261      0.016041     -0.100778
Li	      6.41655      4.19456      6.31381        -0.057699      0.001716     -0.036317
Li	     10.52053      8.37421     10.53849        -0.025645     -0.000282      0.026292
Li	      4.28885      6.34364      6.34228         0.023052     -0.022192     -0.017981
Li	      8.49349      8.43821      8.56941        -0.008691     -0.006406      0.138211
Sc	     10.49305      4.26330      6.32386        -0.064379      0.097049      0.007836
Sc	      6.34481      8.34577      6.33021         0.055188     -0.067382     -0.000739
Sc	      6.26140      6.24369      8.44102         0.040204     -0.006986     -0.023021
Mn	      8.54493      6.36066     10.54531        -0.005456     -0.049206     -0.065874
Fe	      4.31900      4.14977      4.23521        -0.097482      0.287073     -0.175648
Cu	      6.38812      2.16254      8.44189        -0.161917     -0.015609      0.065988
Ni	      8.48265      2.13439      6.34046         0.005863     -0.029706     -0.048435
Ni	      2.24650      6.28646      8.45944         0.059611     -0.024107     -0.067218
Ni	      8.45535      4.16950      8.43080         0.060795      0.005268      0.014588
O	      4.23533      2.37521      4.17131         0.015719     -0.269090      0.018474
O	      2.02408      2.09964      2.06306         0.091299     -0.051752      0.063498
O	      4.26458      4.30823      2.20281        -0.040035      0.032731     -0.180789
O	      6.14950      4.23887      4.16476         0.252164     -0.017964      0.049791
O	      6.37598      2.09928      6.47295        -0.048350     -0.067473     -0.165403
O	      8.48317      4.21095      6.31631         0.126463      0.077053     -0.073747
O	      2.32960      4.31925      4.16623        -0.139566      0.136251      0.066639
O	      4.14361      6.19564      4.13389        -0.085905      0.120346      0.051283
O	      4.25330      4.23486      6.03478        -0.037052     -0.061459      0.237308
O	      6.38173      6.34213      6.38759        -0.015223      0.102224      0.050697
O	      6.41969      4.14539      8.49712        -0.124841      0.172954      0.033175
O	      8.52540      6.28339      8.61581         0.024285      0.033144      0.178398
O	      2.16041      6.30358      6.20654        -0.030849     -0.086413     -0.109272
O	      4.29057      8.46752      6.29071         0.140469      0.032238      0.000240
O	      4.25994      6.28576      8.54540         0.068548     -0.005469      0.038140
O	      6.43862      8.40263      8.35881         0.021334     -0.077276     -0.011144
O	      6.58916      6.31412     10.56400         0.107179     -0.033527      0.030344
O	      8.53406      8.22734     10.59350        -0.013275     -0.107237     -0.044745
