# total energy = -218.17529028 eV
 
CRYSTAL
PRIMVEC
0.036302 6.238780 6.325325 
6.377325 -0.015592 6.377913 
4.237678 4.180456 0.003343 
PRIMCOORD
36 1
Li	      0.10802      6.17307      6.21657         0.076482     -0.125463     -0.059090
Li	      8.47649      2.09485      6.36521         0.095108     -0.014954      0.048371
Li	      2.17082      6.21930      8.35694        -0.005536      0.000079     -0.096920
Li	      2.17246      4.11936      2.18013        -0.015631      0.016645      0.092361
Li	      6.26434      6.28742      4.29535        -0.042956      0.078879      0.015236
Li	      4.27893      8.35979      4.33923         0.022065     -0.013839      0.037870
Li	      2.19431      6.21034      4.27614         0.019369     -0.005785     -0.011310
Li	      4.26768      6.29707      6.15526        -0.043555      0.072504     -0.043270
Li	      6.40993      6.20848      8.54833         0.061429     -0.028763      0.006254
Sc	      4.15477      2.08386      2.10998        -0.024113     -0.055037     -0.347527
Sc	      4.35185      6.21145      2.17925        -0.078107      0.156358      0.130118
Sc	      8.46918      6.16845      6.33355        -0.252115      0.195083      0.285435
Mn	      4.25053      4.20294      8.47368         0.208913     -0.120660     -0.142868
Fe	      2.08196      4.21813      6.26314         0.079042     -0.146213      0.117427
Cu	      8.57081     10.36878     10.58802        -0.190699      0.036645      0.015776
Cu	      6.36171      4.16337      6.35398         0.133041      0.183853      0.338772
Ni	      6.44971      8.26432     10.61071         0.087440     -0.022311     -0.160141
Ni	      4.26464      4.25131      4.24733         0.029579     -0.135323      0.060269
O	      6.35480      4.10053      4.45925        -0.031469     -0.021380     -0.701808
O	      6.30566      6.26482     10.57209         0.070536      0.013879      0.002568
O	      2.15379      2.08503      2.08003        -0.000445      0.013150      0.011181
O	      4.21590      4.14754      2.20061         0.010595     -0.030158     -0.021783
O	      4.32732      2.04008      4.23342        -0.023778      0.270296      0.024504
O	      6.34477      2.06903      6.36797         0.133247     -0.010771     -0.039169
O	      8.44022      4.14465      6.28095        -0.193542     -0.110846      0.174729
O	      2.22727      4.16624      4.40162         0.057618      0.030806     -0.386933
O	      4.27784      6.25842      4.17611         0.017664      0.012462     -0.002626
O	      4.19976      4.19622      6.46215         0.404369     -0.110219      0.030017
O	      6.41659      6.43648      6.34559         0.098383     -0.433564      0.026440
O	      6.21175      4.18316      8.29855        -0.134897     -0.035377      0.442229
O	      8.54614      6.42942      8.43883         0.027573     -0.015003     -0.114348
O	      2.13532      6.02553      6.31845         0.051349      0.504598     -0.009004
O	      4.40562      8.30199      6.39182        -0.584283     -0.007066      0.180974
O	      4.24364      6.13983      8.58954        -0.001830      0.032564     -0.113155
O	      6.52237      8.34405      8.38657        -0.034119      0.019580      0.186030
O	      8.49709      8.39047     10.39330        -0.026726     -0.194648      0.023389
