# total energy = -217.84077658 eV
 
CRYSTAL
PRIMVEC
0.011125 6.399368 6.477068 
6.175331 0.046850 6.441499 
4.139949 4.265731 0.008185 
PRIMCOORD
36 1
Li	      4.11739      4.27539      0.04911         0.019059      0.081310     -0.054642
Li	      8.22311      2.28169      6.41111        -0.044303     -0.021793     -0.060004
Li	      2.01552      0.05884      2.10051         0.070844      0.007889     -0.008030
Li	      8.21522      4.24378      4.52103         0.089487     -0.115817      0.071311
Li	      6.22511      8.57570     10.78285        -0.021671     -0.016163      0.014687
Li	      8.21378      4.22914      8.51717        -0.034374      0.058553     -0.014076
Li	      6.29280      4.18223      6.41071        -0.035524     -0.031000      0.028475
Li	      6.12071      8.61068      6.49141         0.058050     -0.002745     -0.026689
Li	      6.11573      6.49146      8.70988         0.036204      0.009977      0.108731
Sc	      4.13740      4.26230      4.24295         0.096972     -0.115906      0.162563
Sc	      8.25412      6.23618      6.54494         0.146878      0.093484      0.141756
Sc	      8.15136      8.61965      8.63161         0.123799     -0.102712      0.050380
Mn	      4.14484      6.44828      6.45817        -0.297395     -0.182564      0.003245
Fe	      6.26250      6.29768      4.27450        -0.032841      0.255196      0.133783
Cu	      4.17876      8.59460      8.55125        -0.040544     -0.034096      0.103326
Cu	      6.25650      2.19324      8.50946        -0.034088      0.171833     -0.141772
Cu	      6.19067      4.34145     10.77291        -0.210050      0.303947     -0.113862
Cu	      8.19237      6.45449     10.79558        -0.096559      0.063203     -0.118393
O	      2.22939      6.40141      6.32623         0.277048     -0.004721      0.061432
O	      4.14692      8.35269      6.38293        -0.069200      0.023856      0.066197
O	      6.26491      6.29832     10.78835        -0.193022      0.102761     -0.010377
O	      8.29919      8.49792     10.72986         0.010248      0.138212      0.040217
O	      2.15447      2.17806      2.28110         0.066116     -0.036861     -0.059694
O	      4.17168      4.38719      2.18996         0.006581     -0.333972     -0.131456
O	      4.09010      2.20948      4.41029        -0.018547      0.017429     -0.051616
O	      6.18490      4.37611      4.29092        -0.041635     -0.039371     -0.013262
O	      6.17657      2.17966      6.55929         0.000898     -0.062246     -0.162970
O	      8.26054      4.32669      6.46416         0.007397     -0.071805      0.080467
O	      2.02407      4.33630      4.30385         0.097344     -0.367028      0.061172
O	      4.15647      6.43794      4.42009         0.190771     -0.062224     -0.036361
O	      4.13396      4.41453      6.46136        -0.036687      0.091894     -0.016888
O	      6.11449      6.42975      6.33404        -0.092618      0.044447     -0.150998
O	      6.15868      4.19148      8.73952         0.025937     -0.157747      0.022782
O	      8.30631      6.49643      8.64318        -0.103444     -0.025297      0.054681
O	      4.12591      6.44083      8.34344         0.036835      0.261950      0.059011
O	      6.11838      8.55646      8.65605         0.042035      0.058126     -0.093126
