# total energy = -225.16087131 eV
 
CRYSTAL
PRIMVEC
0.005789 6.257482 6.427808 
6.340151 0.033468 6.399360 
4.236194 4.162263 0.013294 
PRIMCOORD
36 1
Li	      2.25968      6.19790      8.57628        -0.037090     -0.024527      0.082880
Li	      4.40565      8.24645      8.48762         0.046707      0.018078     -0.118460
Li	      4.26985      6.37110     10.49287        -0.049909     -0.093329     -0.018265
Li	      4.23679      4.14720      4.50017         0.091499      0.136066     -0.183233
Li	      6.24747      4.24400      6.34781         0.104020      0.004188     -0.106139
Li	      2.04725      6.19174      4.41780        -0.014165     -0.027604     -0.016639
Li	      6.36824      8.33982      6.48629        -0.119504      0.033998      0.190814
Li	      4.27477      6.28449      6.45980        -0.069656      0.175809     -0.038073
Li	      6.23476      6.37898      8.53084        -0.005197      0.054809      0.037294
Sc	      8.50787      8.33676     12.71515         0.055719     -0.126378     -0.078279
Sc	      4.23161      6.19044      2.25700         0.173683     -0.059614      0.304128
Sc	      4.14256      4.32918      8.52460        -0.382064      0.095483      0.561727
Mn	      8.42453      4.20625      8.53685         0.047719     -0.271077      0.427320
Fe	      0.07229      6.19676      6.36337         0.010373     -0.068710     -0.026261
Fe	      6.41881      6.16316      4.39885        -0.340966     -0.036732     -0.398769
Co	      8.42683      6.27224      6.42024         0.046385      0.439318     -0.677927
Ni	      6.27362      2.14282      4.23390         0.100395      0.239661      0.023549
Ni	      6.37747      4.24401     10.67441        -0.016699      0.000314      0.014339
O	      2.07303      2.23252      2.08602         0.016442      0.113544     -0.050379
O	      4.01164      4.15323      2.04037        -0.113699     -0.005620      0.032923
O	      4.19377      2.10535      4.50040         0.245709     -0.044903      0.337228
O	      6.35093      4.28522      4.26078         0.004278     -0.402340     -0.015302
O	      6.26303      2.07763      6.40319        -0.172704      0.040771      0.213905
O	      8.46475      4.25727      6.57598        -0.030051      0.092630      0.081046
O	      2.10753      4.07608      4.06349         0.142661      0.324969     -0.215547
O	      4.40245      6.26890      4.28422        -0.357151     -0.050807      0.000744
O	      4.21485      4.01584      6.47971         0.016920     -0.285581      0.008710
O	      6.52745      6.27486      6.33679         0.168026      0.104071      0.383743
O	      6.43910      4.17515      8.58464         0.027582      0.000688     -0.189146
O	      8.46998      6.16703      8.44359        -0.051627     -0.051617      0.063505
O	      2.00860      6.30450      6.45765         0.184362      0.023308      0.024942
O	      4.20810      8.38778      6.35038        -0.034647     -0.069148      0.145272
O	      4.25635      6.26138      8.49045         0.045367     -0.010481     -0.117198
O	      6.35772      8.38561      8.69032         0.277435     -0.062567     -0.560555
O	      6.32673      6.33452     10.82384        -0.067458     -0.218733     -0.101287
O	      8.47581      8.34550     10.68160         0.057307      0.012061     -0.022613
