# total energy = -226.73972446 eV
 
CRYSTAL
PRIMVEC
0.020333 6.303903 6.180868 
6.392113 0.002318 6.199321 
4.264757 4.217887 -0.001751 
PRIMCOORD
36 1
Li	      0.11292      6.27238      6.21675         0.038227     -0.030654      0.015863
Li	      2.15647      8.32945      6.21949         0.011591     -0.031086     -0.009280
Li	      4.40674      8.27461      8.15707         0.054185      0.098819     -0.013530
Li	      6.46134      6.26435      4.22661         0.024598      0.003616      0.005394
Li	      8.42497      6.33039      6.15202        -0.089732      0.039749     -0.009156
Li	      6.38770      4.25630      6.12725        -0.024637      0.031682      0.007458
Li	      6.35412      8.40937      6.22765         0.020652      0.023949      0.006666
Li	      4.35716      6.36813      6.18493         0.077596     -0.027271     -0.094101
Li	      6.28923      6.43874      8.15366         0.028809      0.022487      0.010258
Sc	      6.35284      2.08349      4.29366        -0.067624      0.008589      0.074823
Sc	      8.54307      4.15878      8.07648        -0.017530     -0.079453      0.086795
Sc	      4.23689      4.23265      8.10062        -0.027573     -0.244886     -0.060082
Mn	      4.30330      8.39329      4.21607        -0.036316      0.045537      0.068838
Fe	      4.27668      4.17676      4.19489         0.131421     -0.087382     -0.138778
Fe	      2.16886      6.26536      4.26509        -0.160461      0.183553     -0.195661
Co	      8.48969      4.26193      4.16399        -0.036618      0.243738      0.244919
Co	      6.40260      2.09406      8.23284        -0.009864      0.018689     -0.057561
Ni	      2.15228      6.35396      8.18045        -0.102602     -0.022434     -0.067180
O	      6.38123      6.31729      6.23665        -0.032156      0.024446      0.021521
O	      1.96112      2.10849      2.03508        -0.053843      0.180273     -0.009977
O	      4.27088      4.33869      2.11547        -0.118454      0.080146     -0.025045
O	      4.28493      2.12333      4.10671         0.104231      0.604243     -0.074366
O	      6.41524      4.20480      4.10268        -0.551987     -0.067113      0.030067
O	      6.37424      2.12330      6.30519         0.010598     -0.006416      0.012430
O	      8.48162      4.27286      6.06496         0.027050     -0.081989     -0.305626
O	      2.20882      4.27048      4.05702        -0.043614     -0.053866     -0.024631
O	      4.20648      6.28304      4.00847         0.043308      0.067895     -0.023904
O	      4.29761      4.24212      6.09327        -0.048136      0.033914      0.256601
O	      6.41482      4.07520      8.40307         0.030332     -0.015816     -0.003536
O	      8.66229      6.32995      8.35401         0.054094     -0.052783     -0.044382
O	      2.16029      6.32149      6.11300         0.036121     -0.045596      0.147290
O	      4.33974      8.36637      6.05534        -0.059488      0.039156     -0.042961
O	      4.23788      6.30464      8.43048         0.112049      0.046147      0.271256
O	      6.47200      8.45557      8.29888         0.039013     -0.060483      0.001620
O	      6.36965      6.26299     10.31244         0.548608     -0.130214      0.001880
O	      8.53453      8.47988     10.31037         0.088153     -0.759186     -0.063923
