# total energy = -222.07835816 eV
 
CRYSTAL
PRIMVEC
0.063664 6.660361 6.345024 
6.178136 0.112376 6.297249 
4.176515 4.466416 0.017129 
PRIMCOORD
36 1
Li	      6.29001      8.96198     10.43685         0.064263     -0.070022      0.010880
Li	     10.34192      6.91995      8.54470        -0.018279      0.148026     -0.016948
Li	      6.14851      6.70610      4.23865         0.031533      0.022318     -0.058992
Li	      6.14217      4.66394      6.39781         0.039522      0.005436      0.187765
Li	      6.21523      4.56230     10.43533        -0.094379     -0.001347     -0.088730
Li	      8.37748      6.71698     10.37455        -0.026671     -0.030510     -0.046744
Li	      6.28651      8.83222      6.35806        -0.039249     -0.045423     -0.026259
Li	      8.33301      8.84137      8.51566         0.100545     -0.132667      0.036091
Li	      6.28226      6.72616      8.45364         0.061426     -0.163412      0.043440
Sc	      0.15419      6.65425      6.25460        -0.049954      0.065469     -0.247341
Sc	      8.21269      2.38689      6.25521        -0.031043      0.040198     -0.084688
Sc	      8.21364      6.82246      6.29974         0.129896     -0.379896      0.246983
Mn	      4.18084      2.30218      2.15704        -0.138228      0.002424      0.060637
Fe	      4.19303      6.67914     10.45080         0.102968      0.036517      0.116417
Fe	      2.01590      4.50045      2.30894         0.013699      0.107205     -0.314160
Cu	      6.37551     11.04137      8.47605        -0.174233      0.181442     -0.020156
Cu	      4.18379      4.56714      4.28422         0.122990      0.444627      0.289780
Cu	      4.27632      6.66790      6.27550        -0.145770     -0.107557     -0.197056
O	      2.23682      4.51617      4.21891         0.213050      0.012452      0.416864
O	      4.17752      6.66731      4.30275        -0.013288     -0.266198      0.311127
O	      6.12946      9.02714      8.45112        -0.134245      0.058074      0.023772
O	      2.18199      2.47409      2.09994         0.286162     -0.409082     -0.060808
O	      4.01036      4.28647      2.18877         0.720473     -0.142369     -0.079325
O	      4.12799      2.12089      4.09145        -0.004623      0.112588      0.051847
O	      6.20028      4.51962      4.05347        -0.393872     -0.089728     -0.049447
O	      6.20758      2.16076      6.34245        -0.145307     -0.016096     -0.081749
O	      8.28759      4.55224      6.18015         0.025629      0.046885      0.174311
O	      4.17690      4.35615      6.31256         0.046219      0.406684     -0.136486
O	      6.20260      6.71246      6.32313        -0.050751      0.006101     -0.034259
O	      6.40379      4.49911      8.47358        -0.857904     -0.091179     -0.059569
O	      8.30964      6.56158      8.37454         0.106514      0.317812     -0.230490
O	      2.21782      6.80700      6.49364         0.170628     -0.021249     -0.113236
O	      4.21238      9.05669      6.57361         0.037403     -0.029544     -0.025195
O	      4.20879      7.02105      8.45362        -0.081721     -0.013544     -0.285770
O	      6.17167      6.71187     10.55804         0.228462      0.027992      0.161065
O	      8.35009      9.17377     10.52818        -0.101865     -0.032427      0.126427
