# total energy = -221.59655859 eV
 
CRYSTAL
PRIMVEC
0.009654 6.341361 6.333945 
6.262848 0.021548 6.321733 
4.207320 4.251699 -0.017830 
PRIMCOORD
36 1
Li	      4.26728     10.48224      6.31290        -0.062425      0.034674      0.013225
Li	      2.24732      8.37900      6.29461         0.031796      0.106399      0.002901
Li	      6.39916     10.41428      8.47003        -0.002563      0.051577      0.050606
Li	      4.28697      8.48555      8.32757        -0.033972      0.000667      0.030761
Li	      6.27824      8.45555     10.45779         0.006179      0.014614     -0.071251
Li	      4.18762      4.15973      4.16363         0.021672     -0.001057     -0.025764
Li	      4.26565      8.48190      4.33121        -0.067006      0.028473     -0.043568
Li	      8.14377      8.56728      8.39939         0.032537     -0.025139      0.052779
Li	      6.26132      6.52916      8.43852        -0.014387     -0.009261      0.032987
Sc	      4.29010      6.26527     10.39101         0.023609     -0.051193      0.047258
Sc	      4.25150      6.32755      2.17289         0.028001     -0.033150     -0.044963
Sc	      6.19542      4.28367      6.26170         0.089308     -0.141718     -0.025452
Mn	      8.30642      6.43616     10.59727        -0.035695      0.077615     -0.255015
Fe	      2.13734      4.21426      2.12694        -0.027810      0.078438     -0.040957
Fe	      4.16442      2.15330      6.23242         0.109447     -0.146846      0.142207
Ni	      4.15911      6.45347      6.40238         0.037492     -0.072440     -0.026340
Ni	      2.11277      2.12844      4.22358        -0.035928      0.007624     -0.141933
Ni	      6.25685      8.53317      6.33783        -0.461056      0.008921      0.472046
O	      6.23976      8.51702      8.21679         0.280897     -0.000113      0.395411
O	      2.10146      2.28739      2.19267        -0.001373     -0.206822     -0.100820
O	      3.98225      4.26629      2.11800         0.236765     -0.037162      0.001455
O	      4.16777      2.06212      4.30051         0.054202     -0.005192     -0.054786
O	      6.33958      4.29192      4.21247         0.009553     -0.052474      0.025291
O	      6.11620      2.21644      6.43721         0.092093      0.025419     -0.030243
O	      8.33564      4.34560      6.35094        -0.016229     -0.011064     -0.063602
O	      2.09833      4.37134      4.26551         0.082948      0.100717     -0.244194
O	      4.09019      6.37443      4.24459        -0.072554     -0.002843      0.017742
O	      4.10409      4.17934      6.35288         0.330915      0.032807     -0.086929
O	      6.31630      6.38521      6.24792        -0.012625      0.207653      0.149729
O	      6.52214      4.21833      8.40084        -0.182725      0.024930     -0.010000
O	      8.37680      6.25246      8.54652        -0.018709      0.168618     -0.017467
O	      2.11995      6.38585      6.16984        -0.118048     -0.211162      0.049066
O	      4.34943      8.45025      6.32374        -0.363339      0.102578     -0.267785
O	      4.21685      6.29393      8.43400        -0.034848      0.058849      0.000023
O	      6.39442      6.40370     10.54337         0.065514     -0.056008      0.051838
O	      8.36858      8.36985     10.51339         0.028363     -0.066929      0.015745
