# total energy = -230.06994549 eV
 
CRYSTAL
PRIMVEC
-0.012456 6.403750 6.369390 
6.402853 -0.028411 6.385351 
4.239410 4.250685 0.010216 
PRIMCOORD
36 1
Li	      6.35701      6.35994     12.66160        -0.009991     -0.017735     -0.027812
Li	      8.51769      8.52577     12.58534        -0.004016     -0.015565      0.041462
Li	      4.16907      2.23211      2.18384        -0.010330      0.016722      0.012711
Li	      8.62822     10.48782     10.72012         0.014642      0.003494      0.049892
Li	      6.52060      8.37967     10.68155        -0.000217     -0.016016      0.076300
Li	      4.33749      6.23677      2.17034         0.004112     -0.024330     -0.009728
Li	      2.22453      4.19019      2.16544         0.038720     -0.027034      0.003604
Li	     10.49599      8.61226     10.70446         0.024731      0.020838      0.020136
Li	      8.40173      6.50532     10.64433        -0.008053     -0.018408      0.046509
Sc	      4.35468      2.02495      6.36943         0.150960     -0.120567      0.015523
Sc	      2.03604      4.34130      6.34991        -0.134606      0.118925     -0.027627
Sc	      8.52416      8.50462      8.68379         0.003576     -0.052548      0.014911
Mn	      2.12419      2.12787      4.17276         0.014578      0.072595     -0.085118
Fe	      6.50536      4.13122      6.39860        -0.040470      0.037858     -0.028191
Fe	      4.16350      6.50116      6.35931         0.021542     -0.056382      0.004075
Fe	      6.37324      6.38807      8.73170        -0.003031      0.007338     -0.127483
Co	      4.24668      4.24858      4.22280        -0.041568     -0.009543     -0.117572
Ni	      6.29953      4.28979      2.16455         0.098964     -0.116716     -0.018700
O	      2.11561      2.06758      2.33213         0.032420      0.170035      0.092300
O	      4.30366      4.24875      2.31894        -0.154259     -0.033467      0.119925
O	      4.07797      2.26075      4.26871        -0.073251      0.068686      0.004005
O	      6.23090      4.39687      4.30643        -0.045890      0.088871      0.048244
O	      6.35486      2.21107      6.35163        -0.055200     -0.106928      0.013133
O	      8.43249      4.26705      6.33974         0.085284      0.059008      0.018953
O	      2.26443      4.08920      4.24363         0.048610     -0.111735      0.008152
O	      4.38542      6.23429      4.33169         0.061922     -0.086037     -0.054479
O	      4.26434      4.26612      6.28217         0.002033      0.013489      0.019529
O	      6.35033      6.37046      6.25067        -0.026925     -0.010979      0.061959
O	      6.34467      4.37472      8.36534        -0.004320      0.016531      0.042325
O	      8.37303      6.42979      8.44040         0.021009      0.006163     -0.034374
O	      2.20121      6.36511      6.40073        -0.098089     -0.032072     -0.095885
O	      4.27703      8.42866      6.31447         0.038939      0.111118      0.018944
O	      4.29538      6.35235      8.37133         0.036988      0.011959      0.013874
O	      6.40770      8.44722      8.44509         0.011969      0.004395     -0.055384
O	      6.37249      6.37285     10.58885         0.016233      0.006710      0.044652
O	      8.51538      8.49890     10.60726        -0.017017      0.021329     -0.108762
