# total energy = -232.00330205 eV
 
CRYSTAL
PRIMVEC
0.030166 6.415867 6.349411 
6.343901 0.043439 6.335016 
4.252184 4.290373 0.006760 
PRIMCOORD
36 1
Li	      8.46570      2.22738      6.30291         0.066709     -0.015460      0.031729
Li	      8.31430      4.27133      4.31571         0.052234     -0.044155      0.005313
Li	      6.31403      2.39186      8.50772        -0.113427     -0.040644      0.215724
Li	      8.34780      4.26920      8.47916         0.041622      0.071166      0.071315
Li	      6.31527      6.40879      4.24120        -0.133507      0.096912      0.041728
Li	      6.42883      4.23297      6.39991        -0.006963      0.058426     -0.003279
Li	      4.22984      8.36364      4.17701         0.071603     -0.133753      0.011665
Li	      4.22452      6.47495      6.26843        -0.035478     -0.001292     -0.087578
Li	      4.39664      4.20942      8.47687         0.017157     -0.106942     -0.071052
Sc	     10.52633      4.35955      6.34700         0.160301     -0.250133     -0.090524
Sc	      2.13733      4.28186      6.27912         0.073303      0.221593     -0.413692
Sc	      6.34755      6.25343      8.46283         0.245159      0.028611      0.084177
Mn	      4.19955      2.13799      2.16299        -0.004364     -0.006385     -0.134380
Fe	      2.19931      0.08217      2.13282        -0.049125     -0.013252     -0.312371
Fe	      4.29491      4.39952      4.23476        -0.480854      0.455963      0.003369
Fe	      8.50938      6.44008      6.36459        -0.341908      0.100984      0.454287
Co	      6.41000      8.59926     10.58518         1.027458     -0.189129      0.012600
Co	      8.52387      6.53740     10.48381         0.124987     -0.008448      0.246317
O	      2.30521      2.06476      2.19501        -0.018434      0.128243      0.028088
O	      4.35679      4.25570      2.15694        -0.022030     -0.105973     -0.087045
O	      4.38053      2.27321      4.28333         0.194108     -0.047926     -0.206172
O	      6.32679      4.16073      4.14664         0.139724     -0.271532      0.157618
O	      6.31939      2.17753      6.17989         0.061210      0.037108     -0.100305
O	      8.52242      4.43388      6.29917        -0.029338     -0.095807     -0.031705
O	      2.23085      4.50876      4.23052         0.040323     -0.265823      0.036681
O	      4.14448      6.37685      4.21782         0.262839     -0.076565      0.000536
O	      4.22399      4.23364      6.24916         0.091325     -0.060497      0.084828
O	      6.43953      6.50453      6.34207         0.030418     -0.040573      0.018705
O	      6.35335      4.33272      8.50526        -0.056754     -0.118819     -0.033093
O	      8.43842      6.48329      8.36130         0.035188      0.051317     -0.578773
O	      2.12469      6.37617      6.48005        -0.003910      0.133350      0.401876
O	      4.31956      8.64381      6.34152        -0.177868      0.016625      0.070461
O	      4.23094      6.49610      8.51387         0.028725      0.067472      0.049663
O	      6.23460      8.59442      8.54814        -0.099421     -0.000857      0.122606
O	      6.52990      6.62909     10.56865        -0.261293      0.196503      0.071930
O	      8.35947      8.40857     10.57460        -0.929722      0.229691     -0.071249
