# total energy = -101.77557340 eV
 
CRYSTAL
PRIMVEC
-0.003070 2.172955 2.144518 
5.537386 5.284940 -7.378051 
-3.731651 2.576081 -2.540348 
PRIMCOORD
16 1
Li	     -3.37451      2.48549     -2.39233         0.030629      0.036674     -0.022898
Li	     -1.97274      5.32550     -3.09809        -0.046817     -0.006788      0.004213
Li	      0.00976      2.93968     -2.89777        -0.019894     -0.007230      0.006689
Li	      1.80760      4.47393     -2.29532        -0.028029      0.000955      0.003172
Ti	     -1.47110      2.21997     -0.03338         0.778549      0.085817     -0.092222
Ti	      3.43637      5.12236     -5.28984        -0.151160     -0.229057      0.064375
Ni	     -0.04362      4.74761     -4.69399         0.103041      0.036262     -0.043610
Ni	      1.57090      7.68049     -5.45243        -0.039975     -0.017157      0.013122
O	      3.28722      5.44737     -3.32964        -0.049069      0.295317     -0.107106
O	     -0.00963      4.95179     -2.73451         0.002101     -0.125280      0.126641
O	      1.61845      5.63017     -5.53791         0.304182     -0.070547      0.041328
O	      0.22176      1.90452      0.31235        -0.715310      0.106480     -0.120109
O	      1.86024      2.55227     -2.52617        -0.215334      0.046868     -0.046508
O	      1.67624      7.61393     -7.54202        -0.028155      0.064026     -0.079371
O	     -1.52809      1.94968     -1.90908        -0.015922     -0.168426      0.204257
O	      3.64815      7.54543     -5.17524         0.091163     -0.047912      0.048026
