# total energy = -227.96780392 eV
 
CRYSTAL
PRIMVEC
-0.027891 6.366825 6.302746 
6.359560 -0.016908 6.291727 
4.251484 4.249075 -0.023142 
PRIMCOORD
36 1
Li	      2.23353      0.12242      2.17611         0.063946      0.184163      0.002206
Li	      4.15724      2.03539      2.15703        -0.031566      0.008194      0.033400
Li	      8.34979      4.33674      4.17862        -0.019822      0.110555      0.094486
Li	      6.36470      2.21107      8.32680         0.020200      0.035187     -0.051584
Li	      2.22146      2.00693      4.09725         0.081545     -0.017345     -0.025373
Li	      4.31281      2.03199      6.25505         0.086844     -0.066479     -0.078772
Li	      6.40038      4.19904      6.29855        -0.014345      0.010134     -0.005177
Li	     10.52690      8.40568     10.40206        -0.061778     -0.086170      0.008640
Li	      4.29580      4.22736      8.43750         0.055218     -0.005933      0.007526
Sc	     10.53326      4.28491      6.30623        -0.175592      0.053697      0.037968
Sc	      4.32449      4.21812      4.09023         0.024644      0.039571      0.012511
Sc	      6.35875      8.45988      6.34993         0.004749     -0.237279      0.012039
Mn	      4.21864      6.37845      6.32303         0.412656      0.007045     -0.114414
Fe	      6.39300      2.20159      4.13397        -0.157618     -0.196885      0.011045
Fe	      8.37177      4.13635      8.39138         0.069454     -0.017520      0.065986
Fe	      6.33030      6.26696      8.45016        -0.255181      0.018478     -0.152557
Cu	      8.48978      6.39356     10.44186        -0.119644     -0.162344     -0.109712
Ni	      8.46117      2.13543      6.30651         0.007135      0.047645      0.038309
O	      8.37766      8.37682     10.53651         0.306919      0.114383     -0.138083
O	      2.08175      2.22646      2.08004         0.045110     -0.289107      0.093740
O	      4.15120      4.29092      2.04933         0.049139      0.020540      0.026344
O	      4.35351      2.16886      4.21611        -0.117072      0.040210     -0.012359
O	      6.37371      4.17166      4.12308         0.035493      0.150744     -0.013255
O	      6.38662      2.06046      6.19917        -0.109390     -0.098424      0.045407
O	      8.51351      4.21451      6.33212         0.120610      0.144932     -0.102145
O	      2.16308      4.30979      4.19241        -0.032934      0.054238      0.093697
O	      4.14425      6.38038      4.35161         0.000509     -0.004440      0.078137
O	      4.18319      4.44066      6.25274        -0.043355      0.058781      0.027010
O	      6.16099      6.38790      6.30306        -0.117570      0.079295      0.027419
O	      6.39432      4.29753      8.40413        -0.178943     -0.068206      0.006392
O	      8.36351      6.24880      8.43445         0.221174      0.218041      0.015208
O	      2.20518      6.36922      6.29589        -0.099038     -0.085296      0.013751
O	      4.24133      8.40507      6.27711         0.053374     -0.019405      0.032607
O	      4.29977      6.34984      8.22186        -0.152657      0.018931      0.020863
O	      6.37950      8.35758      8.39889         0.025660     -0.010775     -0.108365
O	      6.41655      6.39776     10.47166         0.002124     -0.049157      0.107106
