# total energy = -225.89650585 eV
 
CRYSTAL
PRIMVEC
0.031253 6.227028 6.319878 
6.406657 0.019886 6.331751 
4.287777 4.176296 -0.003613 
PRIMCOORD
36 1
Li	      6.43329      6.20036     12.58251         0.028429     -0.115610      0.000373
Li	      8.56265      2.13028      6.32158        -0.002400      0.039205      0.088309
Li	      4.39676      6.19105     10.57272         0.085068     -0.063718      0.014728
Li	      6.41491      2.12790      8.44300        -0.021882      0.046191      0.003660
Li	      6.35396      6.27371      4.24483        -0.069448      0.041060     -0.032468
Li	     10.66378      8.34537     10.58856        -0.060205     -0.008866      0.023117
Li	      2.18239      6.26626      4.22550         0.035802      0.010458      0.027283
Li	      4.28222      6.30809      6.22058        -0.083925      0.057732     -0.021406
Li	      6.46803      6.19203      8.50501        -0.011732      0.016161      0.092724
Sc	      4.27412      8.23926      8.44825        -0.023167     -0.042890     -0.095798
Sc	      6.50600      8.17937     10.64315         0.064132     -0.039755     -0.067498
Sc	      4.29593      4.34476      4.26079        -0.027460      0.008981     -0.050203
Mn	      4.36333      4.14204      8.45949        -0.046097      0.036282      0.069975
Fe	      2.11434      0.06501      2.05801        -0.101425     -0.028400     -0.008961
Fe	      8.44803      4.27662      8.45787         0.082748     -0.156519      0.205258
Fe	      6.32991      8.28766      6.21547         0.113954      0.172195     -0.014659
Ni	      4.30794      2.06121      6.31710         0.002897     -0.012442     -0.064369
Ni	      6.45732      4.22461      6.31214        -0.026876      0.157313     -0.106011
O	      2.20726      2.06273      2.05553        -0.045896      0.113698      0.033656
O	      4.26373      4.11971      2.14991         0.029879      0.039277      0.007546
O	      4.35739      2.10542      4.18711         0.030661     -0.022984      0.001399
O	      6.39181      4.18287      4.13667        -0.000250      0.002855      0.018507
O	      6.39411      2.20263      6.31825         0.073873     -0.082560      0.069879
O	      8.47686      4.22076      6.52013         0.111065     -0.075356     -0.155286
O	      2.18551      4.17367      4.16270         0.016220     -0.005172     -0.088676
O	      4.30248      6.25558      4.23328         0.014961      0.045880     -0.045531
O	      4.27456      4.13988      6.43499        -0.028463      0.083762     -0.001756
O	      6.51031      6.36481      6.30262         0.042093     -0.278209     -0.034004
O	      6.35216      4.20753      8.35556        -0.232822     -0.001954      0.097059
O	      8.57429      6.30332      8.39404         0.015468      0.227219      0.063671
O	      2.13246      6.07341      6.43870         0.011280      0.148827     -0.128015
O	      4.45414      8.28169      6.38383        -0.243710     -0.039630      0.064015
O	      4.19525      6.12458      8.42577         0.116291     -0.128859      0.000403
O	      6.54203      8.37584      8.39263         0.135302     -0.131912      0.094891
O	      6.42339      6.24808     10.56165        -0.011147     -0.019077      0.013410
O	      8.58263      8.32203     10.32318         0.026782      0.006817     -0.075221
