# total energy = -230.05347306 eV
 
CRYSTAL
PRIMVEC
0.032185 6.403848 6.280275 
6.422181 0.059032 6.252497 
4.330827 4.299722 -0.009815 
PRIMCOORD
36 1
Li	     10.67736      4.30796      6.24994         0.010913     -0.028210      0.021267
Li	      8.48388      2.34293      6.22987        -0.053472      0.038823     -0.054251
Li	      4.30291      2.21437      2.21920         0.024670      0.068138     -0.034923
Li	      4.31592      0.27593      4.19204         0.014997     -0.021710      0.047699
Li	      6.19271      2.19751      4.26899        -0.005006     -0.014284      0.017321
Li	      2.40768      2.13983      4.15841         0.006043      0.003497      0.002171
Li	      4.34203      4.05755      4.15723         0.012200      0.049130     -0.053606
Li	      4.32593      2.19121      6.03539         0.000065     -0.011521      0.029467
Li	      4.36931      6.40188      6.29406        -0.021542     -0.008407     -0.032455
Sc	      6.43656      2.15074      8.27850         0.019733     -0.102336     -0.034015
Sc	      4.31650      8.57914      4.25735        -0.029293      0.006340      0.085248
Sc	      2.17804      6.47196      4.28812        -0.010887      0.020910      0.081333
Mn	      6.51590      8.52931      6.28561        -0.131649      0.119146     -0.019630
Fe	      2.27688      0.05719      2.18436        -0.124945      0.004093     -0.077806
Fe	      2.29511      4.21343      1.97939        -0.003028     -0.116286      0.101691
Fe	      6.52730      4.31936      6.06410        -0.062493      0.139011      0.049600
Fe	      6.33808      6.51041      8.35989         0.065413     -0.083671      0.042594
Cu	      8.56853      8.61337      8.36390         0.063241      0.007752      0.118117
O	      4.29779      2.17211      4.13487         0.010251     -0.012230      0.020579
O	      2.12046      2.09660      2.02708        -0.034084      0.051261      0.004538
O	      4.26515      4.35069      2.02553         0.100671      0.082753      0.019449
O	      6.42541      4.36344      4.12476        -0.003913     -0.005808     -0.012239
O	      6.44097      2.40146      6.25732        -0.058451     -0.156206     -0.000007
O	      8.53224      4.33362      6.31856         0.023072      0.030464     -0.254567
O	      2.16113      4.30803      4.27379        -0.019760     -0.033699      0.165720
O	      4.23235      6.53851      4.10025        -0.019465      0.013250      0.035730
O	      4.19811      4.27867      6.40579        -0.011265     -0.003448     -0.181309
O	      6.45251      6.51078      6.37387        -0.006565      0.051093     -0.121622
O	      6.63475      4.38524      8.29253         0.080451     -0.018050      0.061193
O	      8.58737      6.38330      8.41408        -0.003497     -0.101522      0.016619
O	      2.18974      6.21736      6.39055        -0.003295     -0.113543     -0.093800
O	      4.57693      8.56982      6.24479         0.075530     -0.025946     -0.090080
O	      4.29971      6.33381      8.38660         0.140526      0.175293      0.006788
O	      6.39969      8.54277      8.21298        -0.049743     -0.020074     -0.042808
O	      6.50393      6.44174     10.32974        -0.014358     -0.009625      0.068983
O	      8.68263      8.56337     10.39784         0.018935      0.025619      0.107012
