# total energy = -231.38612400 eV
 
CRYSTAL
PRIMVEC
0.006476 6.378941 6.271512 
6.377761 -0.015592 6.293862 
4.244542 4.260032 -0.003084 
PRIMCOORD
36 1
Li	      2.19206      0.11798      2.15609         0.023404      0.016231      0.031353
Li	      4.18756      2.03524      2.16669         0.028649     -0.007069      0.051447
Li	      4.17716      0.05101      4.14163        -0.020971      0.024834     -0.011586
Li	      6.41894      8.51287     10.40769        -0.005880      0.055589     -0.021262
Li	      0.13731      2.07037      2.07334         0.098290     -0.040625      0.025344
Li	      2.12965      4.18340      2.06272         0.008918     -0.024484      0.014516
Li	      2.19442      2.05676      4.04650         0.025252     -0.002691     -0.063914
Li	      4.28327      6.36666      6.33871         0.025673     -0.003008      0.032511
Li	      8.45370      8.54561      8.41412        -0.029992      0.026767      0.026983
Sc	      4.28199      4.24955      4.01999         0.075361     -0.078480     -0.132743
Sc	     10.60139      8.40279     10.37342         0.002950     -0.048056     -0.038485
Sc	      6.38898      8.54382      6.34468         0.021667     -0.030023      0.092911
Mn	      2.13995      2.10300      0.06835         0.007756      0.012266      0.102605
Fe	      4.22426      4.28239      0.08184        -0.044977      0.040217     -0.094847
Fe	      4.27426      2.08509      6.23626        -0.083164      0.040583      0.123621
Fe	      6.35722      4.28115      6.25382         0.016963     -0.034855      0.002730
Fe	      6.30938      6.43125      8.44792         0.159221     -0.042329     -0.030163
Ni	      8.49602      6.37425     10.42880         0.011039     -0.004877     -0.073909
O	      2.15198      2.10526      1.93383         0.000761      0.045991     -0.099692
O	      4.24475      4.26290      2.00393        -0.008147      0.018106      0.092644
O	      4.22511      2.18015      4.30892         0.010141      0.008389     -0.046157
O	      6.34019      4.27318      4.30645        -0.027611     -0.009013     -0.064946
O	      6.31004      2.12513      6.35461         0.025059      0.022148     -0.004798
O	      8.49978      4.27964      6.29084        -0.028976     -0.027311     -0.010820
O	      2.12446      4.26152      4.22260        -0.036874     -0.054346      0.015859
O	      4.19631      6.37301      4.12569         0.056942      0.016314     -0.010284
O	      4.27918      4.20206      6.25363        -0.052881     -0.006753     -0.000973
O	      6.42973      6.35220      6.32435        -0.014872      0.040445      0.025779
O	      6.34293      4.37042      8.30472        -0.028344      0.032778      0.065488
O	      8.23691      6.39340      8.33744         0.092729      0.014494     -0.078208
O	      2.05522      6.37317      6.29078         0.015913     -0.037928      0.041302
O	      4.27793      8.60272      6.22591         0.039291     -0.029161     -0.027134
O	      4.49222      6.38653      8.39076        -0.278151     -0.032384      0.004683
O	      6.38580      8.36420      8.37567        -0.002103      0.038138     -0.038223
O	      6.42549      6.31521     10.51336        -0.088285     -0.024485      0.078130
O	      8.53947      8.43465     10.65985         0.005248      0.084588      0.020240
