# total energy = -220.16982455 eV
 
CRYSTAL
PRIMVEC
0.038355 6.369009 6.480269 
6.305825 0.027597 6.491388 
4.188425 4.237751 0.034399 
PRIMCOORD
36 1
Li	      8.36300      2.19992      6.45737         0.003277      0.030252     -0.073537
Li	      4.33657      6.34396     10.85352         0.066602     -0.015372      0.054561
Li	      6.22511      2.20696      8.59412        -0.055013      0.003962     -0.037716
Li	      8.37252      6.39555      6.65110         0.013119     -0.023777      0.046123
Li	      6.31213      4.30078      6.62125        -0.013333      0.020033      0.005841
Li	      8.39144      6.40859     10.70994        -0.079630      0.041756     -0.065549
Li	      6.37406      8.43048      6.52845         0.012350     -0.036515     -0.004136
Li	      8.46922      8.46244      8.70219        -0.020403      0.064768      0.064008
Li	      6.42427      6.30661      8.61268        -0.040885      0.008369      0.008896
Sc	      4.27015      8.47725      8.62441         0.127969     -0.166396     -0.003495
Sc	      6.47767      8.53460     10.85719         0.207901     -0.272672      0.078986
Sc	      4.14194      6.29397      6.48378         0.034013     -0.099214      0.124371
Mn	      6.28995      0.06957      6.51109        -0.007143      0.148148     -0.393247
Mn	      6.30859      6.36595      4.38098         0.108350      0.004470      0.265013
Cu	      4.18019      4.26924      4.38712        -0.111312     -0.052917      0.043773
Cu	      6.27249      4.31069     10.74079         0.103425      0.053472     -0.084666
Ni	      2.09373      0.03436      2.13927         0.050710     -0.055559     -0.033769
Ni	      8.34052      4.30271      8.65573         0.115876      0.012231     -0.219351
O	      6.36491      4.29129      8.75987        -0.016154     -0.080009      0.240094
O	      8.37140      6.19280      8.71707         0.023718      0.122816     -0.043257
O	      2.10553      2.20137      2.36209         0.106312     -0.056294      0.076940
O	      4.19046      4.25505      2.07872        -0.031851     -0.088511     -0.053742
O	      4.10088      2.12959      4.27447        -0.094114      0.132825     -0.126320
O	      6.21145      4.37039      4.29139         0.104601      0.081619     -0.055493
O	      6.33294      1.98959      6.45837        -0.019228     -0.162194     -0.121116
O	      8.56720      4.25482      6.63431         0.122757     -0.021103     -0.043589
O	      2.12487      4.08861      4.26810        -0.072746     -0.060195      0.122665
O	      4.34868      6.42794      4.34901        -0.017578     -0.357789      0.017703
O	      4.20870      4.26659      6.37209        -0.031090      0.124918      0.071233
O	      6.26029      6.36170      6.28485        -0.101936     -0.026848     -0.225986
O	      2.02741      6.36512      6.54738        -0.028384      0.032458      0.006800
O	      4.21012      8.57985      6.49426         0.012254      0.079526      0.035665
O	      4.19917      6.42834      8.54712         0.039843      0.174147     -0.181260
O	      6.31437      8.53016      8.77136        -0.156425     -0.004981      0.124352
O	      6.33840      6.41076     11.04584         0.050877      0.410662      0.315937
O	      8.48980      8.52474     10.79870        -0.406732      0.033918      0.063267
