# total energy = -220.20707640 eV
 
CRYSTAL
PRIMVEC
-0.044401 6.275701 6.238249 
6.533127 -0.009519 6.204960 
4.351476 4.157570 -0.002274 
PRIMCOORD
36 1
Li	      6.50495      0.10143      6.19053        -0.002108      0.026227      0.027428
Li	      8.50718      2.15815      6.22540        -0.058810     -0.002639      0.016649
Li	      0.00914      2.08104      2.09110         0.024987      0.005602     -0.031729
Li	      6.35624      6.20247      4.26129         0.011130     -0.016594     -0.044629
Li	      4.50169      4.12332      4.19906        -0.042324     -0.036221     -0.042337
Li	      4.26683      2.13702      6.17325        -0.012930     -0.058350     -0.048945
Li	      6.55860      4.14676      6.16351         0.120018      0.005393      0.016794
Li	      4.42132      6.16427      6.20092         0.017143      0.038975      0.007365
Li	      6.60912      6.18107      8.22942         0.014956      0.073607      0.010930
Sc	      4.24876      8.28014      8.25599        -0.032490      0.048740      0.043205
Sc	      8.72798      4.20810      8.13384         0.075377     -0.096781     -0.077741
Sc	      8.69785      6.34913     10.42278         0.032579      0.000450      0.129674
Mn	      0.01499      4.18458      4.17749         0.018516      0.039310      0.067280
Mn	      6.53069      8.26748      6.25035         0.032963     -0.094020     -0.057414
Cu	      6.47335      4.15516      2.05139        -0.053472      0.156263      0.027192
Cu	      6.36703      2.11736      4.24470         0.072004     -0.120012     -0.185524
Cu	      4.41683      4.16299      8.19104         0.113090     -0.026164     -0.035872
Ni	      8.69846      4.14504      4.19479        -0.043300      0.053816      0.052704
O	      6.56049      4.06640      4.04904        -0.067236      0.060781      0.048606
O	      6.54568      2.12149      6.07668         0.017468     -0.014208      0.199734
O	      4.09760      4.16844      6.24461        -0.203367     -0.011252      0.080932
O	      2.22781      2.03268      2.05703         0.004698      0.148068     -0.036421
O	      4.31879      4.10813      2.10326        -0.099225      0.020648     -0.010506
O	      4.43907      2.01642      4.10214        -0.169452      0.079272     -0.112901
O	      8.65634      4.15304      6.19638         0.036958      0.008620      0.213291
O	      2.01421      4.20364      4.25969        -0.081558      0.042604     -0.011211
O	      4.27463      6.43975      4.19000        -0.037834     -0.002524     -0.025989
O	      6.48380      6.41066      6.25574         0.003772      0.051597      0.004612
O	      6.65187      4.17931      8.47644         0.019669      0.045903      0.051999
O	      8.73176      6.27765      8.34341        -0.010740      0.120014     -0.041497
O	      2.11692      6.14161      6.29023         0.014581     -0.049416     -0.122935
O	      4.51118      8.33680      6.13701         0.032390      0.005126      0.000368
O	      4.16279      6.16529      8.32832         0.009950     -0.234920     -0.052403
O	      6.38816      8.39185      8.22016        -0.032296     -0.164444     -0.079416
O	      6.53748      6.21823     10.35820         0.082795     -0.061912     -0.012291
O	      8.94028      8.39094     10.32123         0.192099     -0.041556      0.030998
