# total energy = -220.50666368 eV
 
CRYSTAL
PRIMVEC
-0.017893 6.313967 6.361450 
6.319262 -0.015584 6.359072 
4.193657 4.188543 0.008869 
PRIMCOORD
36 1
Li	      8.32386      4.26505      4.27684        -0.020110     -0.015935     -0.011175
Li	      6.17882      2.23324      4.25066         0.038377      0.050308     -0.050100
Li	      6.31180      6.23405      4.43253        -0.007710      0.019567      0.006232
Li	      4.31011      4.13050      4.37968        -0.009007     -0.002672      0.034171
Li	      6.28437      4.26631      6.17823        -0.011740      0.040726     -0.011886
Li	      2.15147      6.27337      4.30225        -0.007016      0.002672      0.058279
Li	      2.15729      4.05780      6.24494        -0.047390      0.014568     -0.033806
Li	      4.22443      6.30101      6.27345        -0.005161      0.011621      0.051826
Li	      6.27797      6.30089      8.44549        -0.057439      0.039005     -0.012357
Sc	      6.32577      6.32008     12.58766         0.163579     -0.180352     -0.044852
Sc	      2.07563      4.22946      2.19927        -0.004694     -0.049745      0.065670
Sc	      4.17698      4.19174      8.43583        -0.038884      0.088193      0.057813
Mn	      6.30253      4.18860      2.19137         0.213215     -0.274723     -0.051604
Mn	      4.18211      8.38544      4.25374        -0.028389      0.032526      0.101030
Cu	      8.40041      8.38422     12.66317         0.042959      0.076048     -0.163614
Cu	      4.24510      8.32189      8.62611        -0.048443     -0.070049      0.050063
Cu	      4.17680      6.31625      2.17213         0.214590     -0.154155     -0.229674
Cu	      4.09904      2.14705      6.28525         0.222480     -0.269389      0.289312
O	      4.21880      2.09214      4.39481        -0.058194      0.031301     -0.269230
O	      6.28851      4.22672      4.02467        -0.032161      0.023874      0.030656
O	      4.17674      6.45160      4.10946         0.060833     -0.065974      0.089185
O	      6.36553      6.26659      6.41848        -0.116200     -0.071564     -0.040265
O	      2.19831      2.00841      1.99314        -0.194376      0.076846      0.355853
O	      4.26643      4.03540      2.11658        -0.058845      0.135736      0.114558
O	      6.37042      2.08908      6.49914        -0.276734      0.054278      0.111068
O	      8.42227      4.13648      6.42839        -0.053451      0.220641     -0.070866
O	      1.91818      4.21244      4.20997         0.056107     -0.014050     -0.082455
O	      4.22122      4.12339      6.41099         0.050315      0.208637     -0.074591
O	      6.29698      4.25439      8.64758        -0.004733      0.078928     -0.042409
O	      8.41578      6.27159      8.40117        -0.066252     -0.000339     -0.079192
O	      2.06356      6.38270      6.52512        -0.083663     -0.292099      0.045313
O	      4.12816      8.38292      6.16439         0.185311      0.068585     -0.003900
O	      4.02512      6.32962      8.46768        -0.174661     -0.010827      0.069047
O	      6.25800      8.56307      8.51900         0.160621      0.189849      0.057203
O	      6.31876      6.14048     10.60595         0.005998      0.005658     -0.018799
O	      8.53078      8.36057     10.63929        -0.009131      0.002304     -0.296502
