# total energy = -238.00465227 eV
 
CRYSTAL
PRIMVEC
0.023387 6.313774 6.360684 
6.241887 0.001222 6.382645 
4.158016 4.220633 0.003944 
PRIMCOORD
36 1
Li	     10.35912      4.24297      6.41381        -0.009698      0.015842      0.013633
Li	      8.26645      2.19437      6.40092         0.011213     -0.017414      0.070877
Li	      4.12279      2.15918      2.14316         0.035925      0.048741     -0.090995
Li	      8.30355      4.24720      4.33020         0.040754     -0.096015      0.094365
Li	      6.18028      2.08557      8.38937        -0.018848     -0.003965     -0.114799
Li	      4.10448      4.19666      4.23649        -0.022715      0.078411      0.001968
Li	      8.33441      6.27098      6.43413        -0.026012     -0.058694      0.099669
Li	      8.30037      6.31343     10.55818         0.047504      0.041628     -0.020694
Li	      6.31114      6.34320      8.49383        -0.011839      0.019637     -0.055301
Sc	      6.12997      4.32833      2.16237        -0.003057     -0.058901     -0.341557
Sc	      6.16141      2.02071      4.32880         0.079721     -0.159827     -0.016999
Sc	      6.23698      4.30464     10.61407        -0.239757      0.004585      0.059861
Ti	      4.18606      6.33124      6.38508        -0.207329      0.190961     -0.015792
Cr	      8.39507      4.25631      8.47272        -0.008675      0.171717     -0.124889
Cr	      8.34420      8.34095      8.47084        -0.009480     -0.041311      0.115985
Co	      2.17117      2.10375      4.23379         0.603248      0.115431      0.033391
Cu	      6.31110      4.17224      6.37442        -0.054783      0.058336      0.093465
Ni	      2.12645      4.18749      6.34943        -0.008329      0.078243      0.087803
O	      2.09941      2.19327      2.21725        -0.077470     -0.206617     -0.238226
O	      4.12982      4.23521      2.08196         0.044459      0.004963      0.065613
O	      4.03168      2.08491      4.25236         0.298521     -0.023295      0.015619
O	      6.24744      4.18860      4.29886        -0.077315      0.254809     -0.173989
O	      6.26891      2.19560      6.33625        -0.068278     -0.062052      0.004435
O	      8.26724      4.20210      6.53016         0.086250      0.025402     -0.092955
O	      2.10279      4.22113      4.19353        -0.020360     -0.192070      0.004234
O	      4.39362      6.34494      4.38349        -0.649431      0.037703      0.185438
O	      4.19193      4.28411      6.44129         0.092525     -0.053959     -0.095992
O	      6.19174      6.30066      6.30607         0.114770     -0.076385      0.304374
O	      6.24796      4.21588      8.45231         0.018903     -0.015819      0.075304
O	      8.32941      6.31542      8.51061         0.007506      0.006082     -0.023661
O	      2.24563      6.28011      6.38628         0.067242      0.016642      0.086678
O	      4.22893      8.28039      6.33922        -0.092890     -0.070306     -0.068485
O	      4.16070      6.20317      8.33878         0.023385      0.041047     -0.009987
O	      6.32930      8.46319      8.48238        -0.040188      0.025368      0.076051
O	      6.21674      6.31682     10.69351        -0.051283     -0.127290      0.005059
O	      8.32549      8.38923     10.48286         0.125814      0.028373     -0.009499
