# total energy = -237.10733435 eV
 
CRYSTAL
PRIMVEC
0.028985 6.380691 6.237015 
6.421355 0.024082 6.241067 
4.298807 4.274499 -0.001602 
PRIMCOORD
36 1
Li	     10.64816      4.31301      6.26196        -0.077247      0.014599      0.033835
Li	      8.60270      2.23269      6.21806        -0.021002      0.097139      0.041680
Li	      2.20274      6.40035      8.26426         0.032582      0.057292      0.063251
Li	      8.71764     10.53799     10.37681        -0.005709     -0.002972     -0.061417
Li	      6.44103      2.15092      8.30094         0.004170     -0.004820     -0.048519
Li	      2.17689      4.23658      2.05100         0.023582     -0.064798     -0.055844
Li	      2.16420      2.17150      4.11832         0.045495     -0.021824     -0.097480
Li	      8.66938      8.54788      8.39428         0.077875      0.022021      0.038227
Li	      6.36093      6.43671      8.37743        -0.052712      0.008397      0.044779
Sc	      8.58795      6.39252      6.33016         0.080757     -0.094458     -0.014614
Sc	      6.53108      4.25666      6.34558         0.207354     -0.098280     -0.020823
Sc	      8.49742      6.45389     10.34866        -0.178300      0.209961     -0.102557
Ti	      4.38799      4.29663      4.00350         0.364774     -0.067423     -0.557065
Cr	      6.44081      4.26774     10.34909        -0.069463     -0.112887      0.025873
Cr	      4.29752      6.39050      6.30687         0.110955     -0.003819     -0.039152
Co	      4.18013      2.10225      2.06770        -0.093927     -0.067260      0.135120
Cu	      6.44502      8.52244     10.35968         0.023081     -0.043727     -0.183196
Cu	      6.44441      8.53716      6.31524        -0.175105     -0.069760      0.108381
O	      6.14561      8.52798      8.37888         0.208552      0.054226     -0.068085
O	      2.43963      2.15057      2.04537        -0.300115      0.046496      0.027609
O	      4.27922      4.25754      2.15300         0.046981      0.128545      0.418644
O	      4.24710      2.34224      4.16791         0.030347      0.076353      0.075992
O	      6.25406      4.35350      4.16282        -0.232087      0.118036      0.068024
O	      6.40797      2.18246      6.12482        -0.031316      0.029839      0.037839
O	      8.54024      4.37488      6.20237        -0.157806      0.146618      0.015873
O	      2.17562      4.27982      4.21250        -0.067650     -0.002006      0.113548
O	      4.28774      6.34485      4.20562        -0.080100      0.053778      0.035719
O	      4.38695      4.33537      6.18331        -0.150183      0.026330      0.039111
O	      6.39944      6.44754      6.28198        -0.008848     -0.005521     -0.042077
O	      6.49856      4.20268      8.37099        -0.033169      0.047707      0.052643
O	      8.61078      6.47261      8.31562        -0.012086     -0.040256      0.001630
O	      2.31616      6.24235      6.24553        -0.076430     -0.033045      0.032529
O	      4.25266      8.36832      6.17903         0.336938      0.020526     -0.206738
O	      4.28386      6.50763      8.24343         0.007138     -0.172746      0.049232
O	      6.46510      6.25371     10.42123         0.110786     -0.106110      0.003539
O	      8.69010      8.52083     10.37406         0.111889     -0.146152      0.034488
