# total energy = -103.42676084 eV
 
CRYSTAL
PRIMVEC
-0.000026 2.086269 2.085421 
8.317373 -4.235246 4.233401 
2.065294 4.205694 -2.118600 
PRIMCOORD
16 1
Li	      0.08762      2.11355      2.05863        -0.012312     -0.003822      0.002821
Li	      2.05333      1.99940      0.08793        -0.037656      0.004457     -0.007807
Li	      6.29201     -0.04783      2.13143         0.016316      0.005819     -0.003717
Li	      8.35368      2.02654      2.14583         0.000563     -0.005968      0.005061
Ti	      4.28551     -0.03391      4.20371         0.314424     -0.058153      0.058303
Ti	      8.46160     -0.03473      4.20544         0.421832     -0.022405      0.023043
Ni	      4.01805      4.22997     -0.05705        -0.092918     -0.035266      0.037198
Ni	      4.06575      2.12596      2.04582         0.040216     -0.039738      0.038994
O	      6.19360      2.19937      1.97230         0.097238      0.102039     -0.101524
O	      6.13014     -0.02631      4.19710        -0.279318      0.008927     -0.012954
O	      8.25945     -0.12956      2.21415         0.005527     -0.059373      0.058429
O	      8.26113     -2.01000      4.09540         0.005794      0.090062     -0.090208
O	      1.96231      4.20456     -0.03221        -0.523268     -0.003379      0.002705
O	      2.09157      2.03307      2.13860        -0.110207      0.105161     -0.105797
O	      4.25529      2.09328     -0.00728         0.071289      0.024918     -0.021408
O	      4.16393     -0.07698      2.16113         0.082479     -0.113278      0.116860
