# total energy = -237.00448198 eV
 
CRYSTAL
PRIMVEC
0.051511 6.308096 6.369487 
6.255944 0.060852 6.359574 
4.203455 4.231527 0.008024 
PRIMCOORD
36 1
Li	      2.01259      2.01218      0.13007        -0.038081      0.007028      0.013237
Li	      2.02136      0.15193      2.15575         0.122549     -0.057105      0.021174
Li	      6.26615      2.16049      4.29469         0.053756     -0.007356      0.088628
Li	      0.16900      2.09440      2.19600        -0.075353      0.048453     -0.047889
Li	      2.04571      4.09386      2.29614        -0.059884      0.071188     -0.050238
Li	      6.19257      6.31627      4.14054         0.041405     -0.009540      0.053518
Li	      6.30946      4.21672     10.47914         0.051324     -0.000961     -0.033921
Li	      4.19917      6.41183      6.23457        -0.004307      0.015522     -0.005731
Li	      6.32793      6.30568      8.53452         0.007788      0.038719     -0.006349
Sc	      4.09868      2.19064      2.15455         0.001282     -0.342124     -0.128743
Sc	      8.40676      6.35643      6.47172         0.018198     -0.076251      0.166902
Sc	      6.28490      4.26935      6.45791         0.101867     -0.011835      0.041990
Ti	      8.46245     10.41160     10.55975        -0.160957     -0.177144     -0.231479
Cr	      8.40645      6.37899     10.55905        -0.082235      0.058132     -0.015923
Cr	      6.26976      8.47539      6.36750        -0.159686     -0.021929     -0.339671
Co	      4.23588      4.26824      4.20653         0.593494     -0.221010     -0.218697
Ni	      6.27863      0.12012      6.37262        -0.042725      0.011237      0.023488
Ni	      4.21812      4.27497      8.51406        -0.005859     -0.003751     -0.086832
O	      2.15943      2.13727      2.09020         0.065578      0.006627      0.054294
O	      4.21686      4.22877      2.26182        -0.009515      0.165202     -0.076807
O	      4.24010      2.14686      4.24794        -0.035701     -0.105687      0.010701
O	      6.34326      4.23403      4.28690         0.884556      0.031761      0.120474
O	      6.24379      2.18126      6.37877        -0.042415      0.037517      0.004200
O	      8.37215      4.29752      6.23192        -0.014404      0.031892     -0.018884
O	      2.27339      4.31537      4.34783        -1.307296      0.013210      0.471801
O	      4.12731      6.17881      4.23686        -0.098877      0.474750     -0.075621
O	      4.14721      4.24294      6.23588         0.040331      0.022312      0.142228
O	      6.31525      6.42916      6.34879        -0.038595      0.024708     -0.059944
O	      6.24179      4.29116      8.45568         0.112803     -0.032001     -0.069847
O	      8.33891      6.46890      8.54145         0.074433     -0.255551      0.015870
O	      2.09854      6.23840      6.22280         0.103453     -0.035256     -0.004134
O	      4.41007      8.49972      6.36677        -0.029206     -0.126084      0.128932
O	      4.22446      6.34527      8.66617         0.049974      0.156497      0.229228
O	      6.39884      8.49413      8.23041        -0.172680      0.086565     -0.145592
O	      6.22354      6.34196     10.65210         0.076094      0.076797     -0.020816
O	      8.41116      8.49599     10.59712        -0.021112      0.105469      0.050454
