# total energy = -240.12776044 eV
 
CRYSTAL
PRIMVEC
0.044982 6.408006 6.291885 
6.359562 0.030907 6.305858 
4.256218 4.298124 0.003932 
PRIMCOORD
36 1
Li	      4.29322      8.38400      8.50121        -0.008678     -0.037942     -0.022728
Li	      4.15134      0.14390      4.10465        -0.038541      0.072043      0.040968
Li	      8.40340      4.42152      8.42031        -0.022454      0.038822     -0.032613
Li	      6.45007      6.34224      4.25154        -0.016820     -0.034871      0.034623
Li	      8.40307      6.37647      6.32348        -0.032433     -0.007810      0.015452
Li	      6.40698      4.49380      6.37678        -0.000698      0.015556      0.017188
Li	      4.41292      6.33412      6.46419         0.033493     -0.031080      0.024052
Li	      4.33295      4.34232      8.44162         0.012819     -0.017797      0.013164
Li	      6.28160      6.35716      8.36599        -0.057442     -0.018022      0.016800
Sc	     10.52958      4.38380      6.34159        -0.050951      0.010062     -0.105139
Sc	      8.46268      2.24500      6.33891         0.114579      0.024071      0.020657
Sc	      6.43130      8.42727      6.39827         0.031521     -0.133542      0.001886
Ti	      4.31369      4.15880      4.22589         0.136125     -0.390107      0.272024
Cr	      2.24983      6.43779      8.40958        -0.010792     -0.067903     -0.012304
Cr	      6.41068      4.28908     10.41455         0.027800      0.029262     -0.037666
Co	      6.43750      8.56088     10.41909        -0.216148      0.007203     -0.097351
Co	      2.20166      6.40587      4.14955         0.042092      0.152336     -0.049723
Cu	      6.32791      2.23299      8.39904         0.029782      0.018203     -0.102932
O	      2.06015      2.04039      2.08235         0.071877      0.019450      0.003925
O	      4.33778      4.39562      2.14972         0.001712     -0.065179      0.061315
O	      4.22861      2.31469      4.16519         0.184109      0.396212      0.001809
O	      6.26252      4.28812      4.12140        -0.233390      0.078835     -0.018832
O	      6.37539      2.14944      6.24305         0.016183      0.016735     -0.052062
O	      8.53029      4.27169      6.25363         0.067228     -0.041989     -0.008477
O	      2.17925      4.42554      4.19690        -0.005274      0.008466     -0.020761
O	      4.14537      6.47806      4.11656         0.050459     -0.058767      0.119842
O	      4.23789      4.33523      6.08436        -0.028404     -0.015808     -0.274783
O	      6.40332      6.48229      6.31859        -0.044393      0.127888      0.003020
O	      6.39533      4.21037      8.48213         0.046100      0.125759      0.008426
O	      8.61790      6.45926      8.56915        -0.069210     -0.021832      0.054062
O	      2.11778      6.43014      6.29277         0.023541      0.000064      0.003510
O	      4.28879      8.64112      6.17481         0.012978      0.005663      0.005808
O	      4.17813      6.43698      8.44086        -0.007782     -0.038362      0.008215
O	      6.41283      8.70346      8.41507         0.032892      0.016558      0.037486
O	      6.58748      6.39195     10.47995         0.052844     -0.193494      0.024276
O	      8.62556      8.38805     10.50715        -0.144724      0.011319      0.046868
