# total energy = -234.71022312 eV
 
CRYSTAL
PRIMVEC
0.080091 6.356254 6.260965 
6.379178 0.049195 6.291501 
4.279535 4.284687 0.007325 
PRIMCOORD
36 1
Li	      2.24538      8.42507      6.24030         0.019624     -0.000573     -0.001040
Li	      2.27887      6.25598      8.30348         0.007475     -0.045503     -0.020171
Li	      6.48074      8.54725     10.37173        -0.006240      0.025789      0.000054
Li	      4.27295      4.27891      4.27858         0.021807     -0.053491     -0.006620
Li	      4.26173      2.25491      6.31101        -0.028696      0.027611      0.002829
Li	      2.36367      4.28893      6.34388        -0.025373      0.027555      0.005561
Li	      4.15913      6.31531      6.24493         0.000587     -0.056309     -0.001448
Li	      8.37600      8.51390      8.29478        -0.051236     -0.035744     -0.021396
Li	      6.55495      6.53136      8.38320         0.046963      0.027046      0.039050
Sc	      6.56497      6.50578     12.54388         0.011753     -0.042298     -0.030675
Sc	      4.46920      8.46883      8.28029         0.025215     -0.033526     -0.111436
Sc	      6.27017      4.25601      6.35299        -0.054990      0.090016      0.005743
Ti	      8.60083     10.54735     10.38560         0.013577     -0.191524     -0.260812
Cr	      8.53893      4.33780      8.38348        -0.050903      0.020100     -0.016629
Cr	      6.45164      6.42724      4.25916        -0.177462      0.026115      0.188715
Cu	      4.34040      8.51571      4.20977        -0.058751      0.040874      0.093770
Ni	      4.28674      6.39282      2.10546         0.086257     -0.077988     -0.096552
Ni	      2.23824      6.41156      4.18809        -0.031072      0.092165     -0.009003
O	      2.13761      2.23026      2.24965         0.020213      0.073499      0.048203
O	      4.19324      4.26096      2.10374        -0.061671      0.011411     -0.001602
O	      4.09968      2.02474      4.15094         0.010379     -0.014592     -0.004288
O	      6.54387      4.39575      4.22973         0.025826      0.007832      0.024027
O	      6.40478      2.19114      6.30052        -0.009520      0.013740     -0.080280
O	      8.52995      4.33364      6.27787         0.025822      0.006323      0.057619
O	      2.09074      4.19408      4.11918         0.101713     -0.104296     -0.152707
O	      4.42196      6.50684      4.14864         0.228039     -0.085823      0.050685
O	      4.32896      4.26975      6.24992         0.012617      0.032753      0.040133
O	      6.41436      6.40003      6.08556         0.027672      0.020356     -0.120683
O	      6.52691      4.27277      8.44171         0.182879      0.024303      0.027669
O	      8.60722      6.32493      8.48151        -0.059899     -0.082444     -0.072987
O	      2.17883      6.41942      6.18066        -0.000988     -0.045060      0.123877
O	      4.32711      8.57640      6.22479        -0.052624     -0.007751      0.066653
O	      4.32418      6.40166      8.51373        -0.025976     -0.085911      0.242380
O	      6.41052      8.52963      8.41968         0.008561      0.009643     -0.026339
O	      6.33424      6.34776     10.46367         0.001968      0.213318      0.015285
O	      8.67063      8.62989     10.44920        -0.183546      0.172382      0.002415
