# total energy = -234.79472230 eV
 
CRYSTAL
PRIMVEC
0.014614 6.247608 6.514159 
6.360316 0.019167 6.510036 
4.222306 4.144414 0.030274 
PRIMCOORD
36 1
Li	     10.51605      4.17288      6.60606        -0.039811     -0.026832      0.010725
Li	      8.39889      2.14094      6.53994        -0.032192      0.023764      0.002694
Li	      6.21850      4.20401      2.13509        -0.102516      0.037701     -0.018490
Li	      4.27936      8.35737      8.66633        -0.020456      0.002516     -0.000796
Li	      8.46899      4.14628      4.45292        -0.002015     -0.046363      0.065656
Li	      6.48262      2.02832      8.46948         0.032846     -0.022101     -0.057592
Li	      4.22833      4.14044      4.35234         0.025144     -0.035087     -0.084233
Li	      6.39909      4.12449      6.52614         0.014695      0.000257      0.004810
Li	      6.33613      8.32267      6.67941        -0.018097      0.028408      0.067057
Sc	      6.24043      2.12407      4.44794        -0.032467     -0.005488      0.050375
Sc	      2.09299      6.14777      4.42388        -0.102563      0.034238      0.065706
Sc	      4.27548      4.18878      8.63804         0.008982      0.009024      0.068627
Ti	      4.22646      6.32018      6.52988        -0.081215      0.171549      0.067079
Cr	      2.27003      4.11136      2.13592         0.151831     -0.085309     -0.051459
Cr	      6.40066      6.12411      4.32925        -0.038776     -0.090884     -0.078916
Cu	     10.55468      8.36428     10.94771        -0.030154     -0.029835      0.112429
Cu	      6.36344      6.27325      8.72351         0.022433      0.033139     -0.036176
Ni	      4.24712      2.10583      6.49978        -0.062364      0.016470      0.009584
O	      4.07865      4.13975      2.14753        -0.020848      0.027212     -0.015406
O	      2.10824      2.16779      2.35164         0.009651     -0.040367      0.080457
O	      4.14738      2.03607      4.40600        -0.038560     -0.029808     -0.067514
O	      6.35733      4.26350      4.27691        -0.026615      0.086798      0.002596
O	      6.29330      2.13519      6.47069         0.069156      0.012413     -0.092734
O	      8.38845      4.18913      6.81366        -0.048688     -0.042035      0.016799
O	      2.20548      4.06239      4.13237         0.114154     -0.076277     -0.057268
O	      4.28181      6.23990      4.47431         0.135271     -0.055669      0.053522
O	      4.28632      4.25759      6.58017         0.001714      0.106075      0.053473
O	      6.31804      6.30636      6.22633        -0.092595      0.026602     -0.218227
O	      6.43425      4.29440      8.86491         0.062690     -0.096729     -0.009293
O	      8.46102      6.19637      8.71861         0.077400      0.004596      0.063927
O	      2.30582      6.22200      6.46602         0.225085     -0.008725     -0.026525
O	      4.25396      8.21649      6.43569         0.036601     -0.180829      0.089257
O	      4.36118      6.26121      8.47815        -0.059485      0.028158     -0.152391
O	      6.40094      8.25156      8.74797         0.003813      0.122915      0.012178
O	      6.38479      6.23968     11.01724        -0.012426      0.088430      0.110673
O	      8.34858      8.26557     10.79573        -0.129623      0.012072     -0.040602
