# total energy = -234.76389296 eV
 
CRYSTAL
PRIMVEC
0.000591 6.462435 6.277167 
6.307307 -0.020941 6.298548 
4.193082 4.310414 -0.001896 
PRIMCOORD
36 1
Li	      6.34902      6.41350     12.37678        -0.011487     -0.031596      0.034490
Li	      2.22864      6.33278      8.31318        -0.017902     -0.053142     -0.068692
Li	      6.30612      2.10788      4.31927         0.001150     -0.022499      0.027124
Li	      6.29362      6.45902      4.36151         0.010920     -0.022857     -0.013928
Li	      4.16890      2.13024      6.18697         0.042996     -0.019163     -0.001597
Li	      4.15977      8.67900      4.31469        -0.043930      0.041645     -0.052514
Li	      2.09390      6.46009      4.26882         0.025639      0.042762      0.045492
Li	      4.20112      6.47997      6.20009        -0.052128      0.020566     -0.062633
Li	      4.09837      4.42272      8.38812        -0.003398      0.029419      0.005252
Sc	      4.18748      8.60602      8.36423         0.049009      0.065966     -0.082368
Sc	     10.46298      6.44723      8.40144        -0.044993      0.070818      0.036143
Sc	      6.32280      6.44996      8.40766         0.089266     -0.032261      0.047898
Ti	      4.26865      4.32857      4.32793         0.233262      0.039459      0.123908
Cr	      8.39063      8.46717     12.42343         0.211087      0.335220     -0.173482
Cr	      2.09424      4.30956      2.10703        -0.017230      0.062223     -0.135048
Cu	      8.39748      4.29396      4.21239        -0.081789     -0.182681      0.022975
Cu	      6.32061      4.30468      6.26510        -0.284880     -0.072513      0.078972
Cu	      2.05023      4.29162      6.20273         0.228662     -0.157564     -0.030842
O	      2.06788      6.68560      6.32831         0.025335     -0.259153      0.106278
O	      8.39809      8.53408     10.61513        -0.025773      0.158218     -0.012299
O	      2.09046      2.28984      1.96287        -0.002531      0.054604      0.041203
O	      4.11276      4.32341      2.19215         0.011191      0.015048      0.066066
O	      4.23017      2.38661      4.14681         0.007756      0.187262      0.043786
O	      6.29345      4.31664      4.26768        -0.181187      0.022791     -0.354611
O	      6.40879      2.18701      6.29919        -0.174448      0.130648      0.024168
O	      8.33489      4.15036      6.34306         0.384172     -0.031644      0.242072
O	      2.22512      4.31793      4.22146        -0.004595     -0.003259     -0.149678
O	      4.24083      6.28400      4.14290         0.043454     -0.207697      0.023249
O	      4.23896      4.31020      6.23730        -0.414550      0.001367     -0.096976
O	      6.30941      6.31388      6.31542        -0.038375      0.005538     -0.110773
O	      6.37301      4.27405      8.34200         0.073370      0.031800      0.300606
O	      8.41206      6.30661      8.39125        -0.039352     -0.126950      0.009247
O	      4.13191      8.62538      6.27562        -0.054268     -0.056441     -0.009742
O	      4.20662      6.51743      8.48526        -0.049007      0.018658     -0.079105
O	      6.27869      8.56715      8.15631         0.039425     -0.067283      0.159252
O	      6.17405      6.46738     10.44275         0.065130      0.012690     -0.003891
