# total energy = -241.74988192 eV
 
CRYSTAL
PRIMVEC
0.031753 6.387899 6.180659 
6.375104 0.022701 6.189555 
4.278458 4.293233 -0.013017 
PRIMCOORD
36 1
Li	      8.55753      8.51249     12.18536        -0.024691      0.025252      0.044279
Li	      6.38212      4.23662      2.12455        -0.020128      0.012473     -0.031454
Li	      4.32640      2.18533      2.10162         0.043989      0.052652      0.028253
Li	      8.38741      4.19546      4.21354         0.007645     -0.043197      0.026490
Li	      6.40103      2.37689      4.13655         0.016950     -0.087839     -0.055101
Li	      4.42502      4.19128      4.15814         0.002647     -0.015574     -0.010396
Li	      6.35811      4.14533      6.05460        -0.068000     -0.041842      0.069646
Li	     10.52590      8.50139     10.35705         0.048056      0.081262     -0.000706
Li	      2.24706      6.55876      4.20164        -0.077766      0.037611     -0.088630
Sc	      2.16620      4.24947      2.12187        -0.042270      0.006818      0.078474
Sc	      6.48546      6.24671      4.14359        -0.003689     -0.025020      0.026098
Sc	      6.32726      6.46970      8.33225         0.050660     -0.011409      0.083121
Ti	      6.41989      6.38707     12.23764        -0.047374     -0.061791     -0.208627
Cr	      4.28110      6.42701      2.08456        -0.000518      0.064431      0.002276
Cr	      8.53527      8.59805      8.27878        -0.002376     -0.008393     -0.021759
Fe	      2.17885      4.33538      6.09790        -0.049529     -0.055782      0.049137
Co	      4.30314      2.14697      6.14494         0.037787      0.007623     -0.075084
Cu	      4.15166      6.48610      6.09616         0.052185      0.022765      0.006689
O	      2.00558      2.21796      2.06168         0.040312      0.004365     -0.064654
O	      4.22415      4.42283      1.96883         0.024489     -0.059973      0.008831
O	      4.26288      2.13273      4.21826         0.138802      0.018257      0.093538
O	      6.41567      4.30691      4.12602        -0.010331     -0.047163     -0.014634
O	      6.26717      2.07290      6.27332        -0.002984     -0.049174     -0.003676
O	      8.67643      4.44767      6.19803         0.037558     -0.005967      0.013425
O	      2.15232      4.22533      4.15832        -0.001673     -0.005722     -0.144205
O	      4.32748      6.40445      4.15009        -0.115197      0.051855     -0.164190
O	      4.20633      4.11513      6.23888         0.093568     -0.171904     -0.016695
O	      6.58257      6.49894      6.21946         0.125674     -0.009845      0.029674
O	      6.35723      4.25982      8.22067        -0.011443     -0.028678      0.033698
O	      8.57745      6.48416      8.18167        -0.003199      0.002877     -0.071069
O	      2.04379      6.35197      6.16930        -0.097258      0.120520      0.016510
O	      4.37174      8.71885      6.21419        -0.008804      0.191857      0.016980
O	      4.31914      6.31178      8.02707        -0.130199     -0.015667      0.151116
O	      6.50459      8.51041      8.15399        -0.005467      0.003130      0.029235
O	      6.41296      6.41672     10.37454         0.033965      0.016094      0.160562
O	      8.55472      8.57239     10.20433        -0.031391      0.025099      0.002849
