# total energy = -242.04298123 eV
 
CRYSTAL
PRIMVEC
0.026298 6.301330 6.213096 
6.452584 -0.043589 6.280842 
4.263704 4.209133 0.009055 
PRIMCOORD
36 1
Li	      2.19863      6.32662      8.20666        -0.048409      0.003006      0.014001
Li	      4.32476      8.25427      8.20765         0.026388     -0.084960      0.042788
Li	      4.36491      6.19545     10.34029         0.038846      0.022789     -0.010926
Li	      2.18781      4.17759      2.09942         0.053939     -0.004834      0.059999
Li	      6.41630      4.20827      6.23841        -0.045523     -0.035540      0.016806
Li	      0.02705      4.26126      4.20540         0.089241      0.009492      0.002423
Li	      8.47181      6.34014     10.50646        -0.002480     -0.000662     -0.030193
Li	      6.34161      8.45237      6.28567         0.018081      0.006582     -0.018732
Li	      4.23808      6.41219      6.33413        -0.005878      0.021510     -0.097984
Sc	      6.50420      2.16863      8.32743         0.003611     -0.013738      0.075432
Sc	      4.27645      4.21882      4.21900        -0.214989     -0.006697      0.006089
Sc	      8.50340      6.13942      6.31425        -0.019540      0.031014      0.018005
Ti	      2.15157      2.09981      4.15544        -0.029057      0.363734     -0.036984
Cr	      6.47981      8.37566     10.36427        -0.038668      0.020050     -0.085217
Cr	      4.32212      4.24193      8.31767        -0.028537      0.007486     -0.043097
Fe	      4.35873     10.35568      6.28191         0.000761      0.051326     -0.074968
Co	      6.43935      6.25481      8.35853        -0.098068     -0.044235     -0.029570
Ni	      2.22468      8.39805      6.14635        -0.031456     -0.006111      0.078821
O	      2.11797      2.10164      2.20601        -0.032301     -0.020732      0.162443
O	      4.24875      4.33346      2.08908         0.025801      0.037363      0.027402
O	      4.25524      2.09556      4.18484         0.002979     -0.012797      0.012618
O	      6.37643      4.20385      4.15660         0.044251      0.039252     -0.016578
O	      6.43348      2.04192      6.21709        -0.042996     -0.006439     -0.001006
O	      8.70832      4.12487      6.30069        -0.051738      0.117120     -0.010436
O	      2.21099      3.99498      4.17990         0.020762     -0.339681      0.003326
O	      4.45606      6.29180      4.14271         0.132986     -0.018016      0.006642
O	      4.29762      4.08951      6.28762         0.071682     -0.001032     -0.013077
O	      6.47170      6.20728      6.21378         0.035228      0.027504     -0.065981
O	      6.36916      4.26976      8.36383         0.016927     -0.017492      0.012523
O	      8.56248      6.35793      8.37521        -0.018827     -0.010626     -0.016466
O	      2.03826      6.35225      6.21322         0.041304     -0.072214      0.021106
O	      4.25475      8.45646      6.21620         0.096734     -0.074552      0.033767
O	      4.52407      6.20975      8.30433         0.022935      0.019340     -0.020163
O	      6.53844      8.23358      8.38517        -0.007515     -0.009263     -0.015947
O	      6.46021      6.38033     10.30845        -0.041800      0.022603      0.048636
O	      8.44212      8.41173     10.34506         0.015325     -0.020552     -0.055500
