# total energy = -238.74369992 eV
 
CRYSTAL
PRIMVEC
0.026313 6.416360 6.193056 
6.457698 0.037374 6.181747 
4.339248 4.303990 -0.008581 
PRIMCOORD
36 1
Li	     10.56706      4.31573      6.19022        -0.016134     -0.008719      0.204049
Li	      4.21496      2.23110      2.11391        -0.063368      0.063155     -0.004385
Li	      8.71438      4.32374      4.24605        -0.061554     -0.052894     -0.027738
Li	      2.18692      4.23829      2.03592        -0.004319     -0.026860      0.018583
Li	      2.30189      2.20564      4.10060         0.028347     -0.011222     -0.081994
Li	      8.62797      6.27557      6.19800         0.036736     -0.096595      0.005381
Li	      6.65540      4.33942      6.17611         0.039491     -0.046854      0.000858
Li	      6.46597      4.48540     10.24241        -0.052241     -0.061974      0.016201
Li	      8.56033      6.40591     10.23325         0.063387      0.023720     -0.035809
Sc	      2.16611      0.11104      2.12119        -0.205347      0.219915      0.078509
Sc	      6.41579      2.08858      4.22253         0.102320      0.341591      0.154283
Sc	      2.11500      4.30490      6.11355         0.004839      0.174520     -0.096352
Ti	      4.37219      6.48119      6.07570        -0.254150      0.076675     -0.289948
Cr	      6.45449      2.20220      8.22389         0.281811     -0.252859     -0.024124
Cr	      4.31491      4.25439      4.12352         0.015470      0.061380     -0.036943
Fe	      8.74451      8.57312      8.33135        -0.026637     -0.026108     -0.005821
Cu	      6.52951      6.37790      8.27976         0.068399      0.014427     -0.074382
Ni	      8.63526      2.25888      6.14158        -0.004809     -0.050016     -0.120579
O	      8.64598      4.20714      6.18850         0.045855      0.337372     -0.041150
O	      2.05314      2.15406      1.99471         0.002326     -0.135727      0.285575
O	      4.39278      4.41588      2.11862         0.058992     -0.039012     -0.000843
O	      4.34716      2.26449      4.12524         0.029658     -0.093717      0.024090
O	      6.35383      4.26357      4.12958         0.020787     -0.020952      0.014806
O	      6.52854      2.11707      6.25442        -0.151190     -0.064498     -0.070608
O	      2.30691      4.27234      4.13503        -0.057047      0.018248      0.079702
O	      4.37346      6.33194      4.15243         0.028439      0.045476      0.281455
O	      4.24789      4.45204      6.17996        -0.005650      0.095875     -0.069981
O	      6.33985      6.49794      6.28904         0.048842     -0.071208      0.202679
O	      6.35243      4.21005      8.26480         0.107420      0.248335     -0.025619
O	      8.77094      6.60762      8.19160        -0.249765     -0.111434      0.022321
O	      2.33525      6.46238      6.17608         0.105389     -0.188039     -0.014484
O	      4.36286      8.43131      6.16724         0.178316     -0.138402     -0.028621
O	      4.28901      6.35354      8.12436         0.133012      0.132452     -0.052723
O	      6.62135      8.67538      8.24596        -0.079262     -0.066518     -0.037072
O	      6.50722      6.47114     10.19826        -0.031354     -0.238310     -0.254247
O	      8.61427      8.65183     10.27527        -0.137008     -0.051224      0.004931
