# total energy = -100.44065186 eV
 
CRYSTAL
PRIMVEC
-0.000009 2.086620 2.086693 
16.968542 -0.000237 0.000010 
0.000029 2.086629 -2.086702 
PRIMCOORD
16 1
Li	      0.06154      2.08703      2.08423         0.034152     -0.000411      0.000749
Li	      1.79226      2.08724     -0.00263        -0.057243     -0.000078     -0.000320
Li	     11.03012      2.08608     -0.00306         0.006784      0.000749      0.000807
Li	     12.75207      2.08621      2.08401        -0.031603      0.000104      0.000350
Ti	      8.70200      2.08624      2.08359         0.710850      0.000104      0.001060
Ti	     14.83111      2.08630     -0.00174         0.233997      0.000204     -0.000944
Ni	      3.96113      2.08711      2.08398         0.049172     -0.000399     -0.000138
Ni	      6.26855      2.08668     -0.00286         0.064258     -0.000118     -0.001453
O	     12.91740      2.08635     -0.00263         0.125317      0.000176     -0.000305
O	     14.79554      2.08637      2.08459        -0.008126      0.000141      0.000191
O	      8.53074      2.08628     -0.00300         0.042734      0.000321     -0.000565
O	     10.49030      2.08625      2.08360        -0.622534     -0.000131     -0.000154
O	      4.30547      2.08707     -0.00262        -0.067508      0.000015     -0.002730
O	      6.61655      2.08660      2.08367         0.067126     -0.000037      0.001724
O	     16.66821      2.08659     -0.00239        -0.360973     -0.000197      0.001932
O	      2.03625      2.08721      2.08408        -0.186402     -0.000442     -0.000204
