# total energy = -243.57278959 eV
 
CRYSTAL
PRIMVEC
-0.003546 6.172066 6.414210 
6.335681 0.002842 6.408096 
4.254017 4.141209 -0.028555 
PRIMCOORD
36 1
Li	      2.12515      2.04412      0.05748        -0.012579     -0.007701      0.030099
Li	      4.13024      2.01620      2.21203         0.012385     -0.026087      0.037684
Li	      4.26613      6.18615      2.30777         0.019382     -0.011784      0.034538
Li	      2.08278      2.05287      4.18132         0.028268      0.007459      0.025546
Li	      4.22620      4.24558      4.19024         0.046299      0.038605      0.015833
Li	      4.21324      2.07380      6.38705        -0.007223     -0.005171     -0.053927
Li	      2.30293      6.18654      4.19009        -0.030092      0.021095     -0.032062
Li	      4.17016      6.23426      6.30607         0.006327      0.007753     -0.000792
Li	      6.36475      6.15649      8.53897        -0.005066      0.014818     -0.033550
Sc	     10.57786      4.18381      6.42061        -0.002976      0.038880      0.002830
Sc	      6.23074      8.20308     10.59119         0.002950      0.017520      0.043605
Sc	      6.34969      4.17867      6.38502        -0.042728      0.045144     -0.061776
Ti	      2.15962      4.01452      6.31042        -0.018233     -0.309692     -0.086804
Cr	      2.12043      0.08765      2.15715        -0.050179      0.058060      0.003751
Cr	      4.24293      8.18150      4.23691        -0.013583      0.006133      0.008294
Fe	      2.20937      4.12085      2.17814        -0.106793      0.098461      0.041278
Fe	      8.48785      8.15361      8.52626         0.034159     -0.010453     -0.024573
Ni	      4.20690      6.19973     10.62686        -0.039025     -0.016265      0.123623
O	      2.14671      2.12016      2.11674        -0.059915     -0.113835      0.028649
O	      4.23318      4.16478      2.09480         0.119480     -0.048949     -0.011045
O	      4.27816      2.03764      4.23563        -0.007779      0.150036      0.023590
O	      6.37661      4.14744      4.23695        -0.115434     -0.045658     -0.080403
O	      6.38189      2.10992      6.25346        -0.015039     -0.023867      0.004351
O	      8.44876      4.13685      6.51190         0.010311     -0.014752     -0.045633
O	      2.06459      4.13149      4.35198         0.026821      0.029260      0.102559
O	      4.23998      6.27048      4.27627         0.092359     -0.002612      0.047805
O	      4.16429      4.11307      6.49122        -0.082984      0.038341     -0.028173
O	      6.37070      6.29191      6.43152        -0.003037      0.244678     -0.029136
O	      6.32565      4.12653      8.55526         0.063566     -0.021107      0.038740
O	      8.44871      6.14645      8.55559         0.014938     -0.004220      0.007758
O	      2.06756      6.08571      6.57087         0.069414     -0.048686     -0.033278
O	      4.41259      8.26547      6.26525         0.036047     -0.018224      0.020003
O	      4.09848      6.08191      8.58753        -0.007834      0.020459     -0.124283
O	      6.41478      8.30763      8.44142        -0.062951      0.018936     -0.023797
O	      6.28418      6.13078     10.73463         0.119480     -0.048222     -0.013983
O	      8.53212      8.25411     10.55677        -0.018738     -0.078355      0.042679
