# total energy = -247.69544532 eV
 
CRYSTAL
PRIMVEC
0.026690 6.372260 6.385840 
6.288964 0.020141 6.392178 
4.207980 4.267530 -0.001704 
PRIMCOORD
36 1
Li	      6.28191      4.22555      2.15534        -0.003047      0.008480      0.002818
Li	      4.31303      8.55497      8.45880         0.071302      0.048857      0.025971
Li	      6.33703      8.53560     10.49735        -0.035265      0.003463     -0.076550
Li	      8.31712      4.20182      8.50389        -0.011206     -0.011902      0.037732
Li	      2.12774      2.11468      4.18425         0.008108      0.002176     -0.063442
Li	      6.31457      4.25511      6.48338        -0.019594      0.025299      0.030416
Li	      6.32373      4.24122     10.52813         0.011128      0.012147      0.010658
Li	      6.35390      8.49050      6.53064         0.011557     -0.006551     -0.005968
Li	      6.31643      6.42277      8.50487        -0.013733      0.050105     -0.015503
Sc	      8.32640      4.29549      4.20105         0.036736      0.070278     -0.019834
Sc	      4.30886      4.19703      4.18738        -0.009869     -0.050091     -0.029415
Sc	      4.35907      6.47180      6.41606         0.087841      0.011838      0.009790
Ti	      8.26358      6.30849     10.64196        -0.211775     -0.338872      0.081627
Cr	      8.36367      2.20376      6.42914         0.007999      0.016687      0.009656
Cr	      0.03636      2.14437      2.15945         0.038787     -0.064570      0.043704
Fe	      4.28456     10.56458      6.44372        -0.037839     -0.024450      0.023048
Fe	      8.31498      6.37430      6.40616         0.117360      0.010396      0.036533
Fe	      8.34448      8.54432      8.49436         0.117899      0.026580      0.003985
O	      2.00433      2.17891      2.00978        -0.011121     -0.068462     -0.019853
O	      4.22340      4.32741      2.18132        -0.022320      0.086467      0.067333
O	      4.21108      2.12134      4.39531         0.012502     -0.003606     -0.053268
O	      6.32835      4.29504      4.24165        -0.000264      0.013145      0.011738
O	      6.27411      2.07259      6.52669        -0.016879      0.083281      0.032548
O	      8.37798      4.29983      6.35516        -0.089240     -0.108009      0.000434
O	      2.13320      4.45130      4.27116        -0.059712      0.335715      0.002264
O	      4.15312      6.35468      4.25044        -0.072513      0.010884     -0.043729
O	      4.22062      4.22968      6.39393         0.014952      0.020163      0.013650
O	      6.38496      6.42482      6.39701        -0.141098     -0.005713      0.024351
O	      6.16064      4.13958      8.54578         0.063118      0.005613     -0.022986
O	      8.45118      6.44163      8.58365        -0.015472     -0.028294      0.052142
O	      2.19369      6.53235      6.22766         0.069704     -0.005147     -0.097976
O	      4.13264      8.51837      6.43458        -0.045148     -0.066852     -0.056518
O	      4.25754      6.31795      8.49520        -0.000061      0.047463      0.021401
O	      6.44907      8.53521      8.49848        -0.141548     -0.011415      0.016184
O	      6.38780      6.40308     10.63403         0.263215     -0.029565     -0.089292
O	      8.39521      8.51005     10.69554         0.025500     -0.065538      0.036351
