# total energy = -234.78686561 eV
 
CRYSTAL
PRIMVEC
-0.024792 6.410232 6.340701 
6.316590 0.043843 6.272509 
4.247183 4.263351 -0.006026 
PRIMCOORD
36 1
Li	      2.18478      6.41713      8.43164         0.041541     -0.039623     -0.004955
Li	      4.15761      8.45272      8.42875        -0.090819     -0.066994     -0.005092
Li	      4.20355      6.40799     10.43810         0.049777     -0.028930     -0.020906
Li	      6.30402      2.17271      4.14457        -0.025587      0.022061     -0.047501
Li	      2.12091      2.16773      4.20225         0.010524     -0.010196      0.021453
Li	      6.31148      4.33312      6.23450        -0.020160      0.051032     -0.056782
Li	      6.30363      8.48255      6.37870        -0.021555     -0.027784      0.051121
Li	      4.25590      6.51297      6.37510         0.033399      0.038829      0.012020
Li	      6.22946      6.44422      8.41307        -0.043391      0.026553      0.011105
Sc	      4.21856     10.57135      6.36020         0.074156     -0.068137     -0.007246
Sc	      0.12786      2.19142      2.08494         0.070019      0.002822      0.019435
Sc	      8.38543      6.44937     10.52808        -0.024445      0.003521      0.043899
Ti	      8.26175      6.43217      6.25766        -0.610226     -0.004486     -0.135009
Cr	      4.33393      4.25139      4.21576         0.137748      0.007595      0.001115
Cr	      4.10739      4.46789      8.41218        -0.091696      0.157118     -0.033551
Ni	      8.41523      8.58503     12.59523        -0.030970      0.041289     -0.036669
Ni	      2.10871      4.25711      2.12194        -0.061413      0.046113      0.007490
Ni	      4.25260      8.54975      4.25800         0.058105     -0.087408      0.000942
O	      2.13316      2.22163      2.03742        -0.041303     -0.102585      0.087792
O	      4.21200      4.29512      2.18942         0.069673      0.037402      0.049154
O	      4.18818      2.32611      4.31396         0.000987      0.042526      0.093589
O	      6.11658      4.29941      4.19028        -0.148302     -0.016674     -0.013778
O	      6.27567      2.09949      6.31465        -0.116588      0.029128     -0.022032
O	      8.42925      4.41831      6.31503         0.004216      0.110421     -0.125766
O	      2.19545      4.31602      4.14844         0.073633      0.010160      0.137444
O	      4.19609      6.25446      4.19594         0.006151     -0.043338      0.010192
O	      4.22156      4.15486      6.29525         0.013681     -0.075954     -0.010086
O	      6.45335      6.41058      6.29861         0.599816      0.012289      0.017901
O	      6.22588      4.28444      8.48538        -0.047872     -0.032405     -0.159451
O	      8.48758      6.53774      8.31783         0.034297      0.032389     -0.025817
O	      2.03286      6.47381      6.28352        -0.029156     -0.086122      0.015149
O	      4.16662      8.52779      6.28209         0.070252      0.074970      0.149270
O	      4.22110      6.27344      8.40961         0.004785     -0.157196      0.000712
O	      6.56568      8.54538      8.40971         0.129532      0.004895      0.015490
O	      6.33567      6.39798     10.56133        -0.004525      0.106700      0.000744
O	      8.47240      8.57539     10.41208        -0.074284     -0.009979     -0.041374
