# total energy = -241.32608510 eV
 
CRYSTAL
PRIMVEC
0.014823 6.291568 6.272148 
6.425219 -0.013551 6.299859 
4.268163 4.197968 0.005930 
PRIMCOORD
36 1
Li	     10.54723      4.32800      6.40920         0.018211     -0.011741      0.028172
Li	      4.35140      8.45030      8.33949        -0.048223      0.007304      0.033954
Li	      6.32377      2.12739      4.29982         0.050489      0.007176      0.017045
Li	      6.42973      2.02094      8.24775         0.038334      0.010430      0.013270
Li	      8.63053      4.23448      8.32123         0.067591     -0.072992     -0.002165
Li	      4.56813      2.00179      6.26590         0.036407     -0.013887     -0.034106
Li	      6.38821      4.07276      6.32684        -0.076948     -0.039383      0.001666
Li	     10.62146      8.44806     10.48138        -0.085192     -0.000913      0.005566
Li	      6.36051      8.37638      6.32775         0.016799      0.018224     -0.005261
Sc	      8.47910      2.20215      6.35450        -0.021330      0.057795     -0.335617
Sc	      2.22896      2.14756      4.17938         0.084889      0.041876     -0.001300
Sc	      8.54039      6.25840     10.48316         0.176155      0.230850      0.082691
Ti	      6.49334      6.23368      8.34753         0.289332     -0.159980     -0.209902
Mn	      4.28214      6.30505      6.30494        -0.076865     -0.149276     -0.104193
Cr	      6.34103      4.11419      2.13038        -0.069213      0.008312     -0.061445
Co	      4.27279      4.16288      8.33806        -0.050779      0.001554      0.072545
Co	      4.33386      0.03026      4.23955         0.116442     -0.222872      0.394117
Co	      4.30892      4.16407      4.21984        -0.074577     -0.122595     -0.010566
O	      2.11105      1.97474      2.13976        -0.018366     -0.055831     -0.031293
O	      4.38449      4.15710      2.26884         0.002018     -0.008111     -0.035558
O	      4.25247      2.15434      4.25406        -0.086240      0.347118      0.061865
O	      6.29968      4.20195      4.12290         0.316999     -0.020740     -0.003167
O	      6.49702      2.05697      6.32240         0.041715      0.006724      0.038430
O	      8.59715      4.18614      6.23660         0.018853      0.244014     -0.008616
O	      2.32626      4.20344      4.16947         0.037842      0.070464     -0.027794
O	      4.28195      6.16619      4.33752        -0.035058      0.014124      0.031302
O	      4.29450      4.34850      6.22446        -0.019001      0.095286     -0.060750
O	      6.20751      6.31690      6.34076        -0.024191      0.001797      0.189333
O	      6.34320      4.36518      8.37300        -0.380163      0.129878     -0.024187
O	      8.40970      6.23650      8.37680        -0.274316      0.238202     -0.041833
O	      2.28022      6.27823      6.32250         0.065480     -0.021506      0.064076
O	      4.24598      8.19027      6.23850         0.004465      0.053188      0.024017
O	      4.26357      6.32298      8.29191         0.079587     -0.292748      0.082025
O	      6.47062      8.34686      8.35176         0.415067      0.019255      0.017673
O	      6.48918      6.27830     10.31272        -0.491855     -0.008278     -0.108068
O	      8.60356      8.38201     10.45449        -0.044358     -0.402719     -0.051925
