# total energy = -240.53081731 eV
 
CRYSTAL
PRIMVEC
0.012187 6.349495 6.253511 
6.377050 0.018871 6.247564 
4.266801 4.244690 -0.002713 
PRIMCOORD
36 1
Li	      2.13959      2.13920      0.03319         0.012874      0.134881     -0.026164
Li	      2.13521      6.38361      8.28764         0.035343     -0.044105      0.004705
Li	      6.41505      8.49713     10.32727        -0.028970      0.060071     -0.037190
Li	      2.13371      2.11589      4.13338         0.034157     -0.021496      0.024495
Li	      4.32068      4.21149      4.21724         0.029899     -0.062961      0.018191
Li	      4.29987      2.13643      6.26951        -0.008818      0.001684      0.010225
Li	      8.52735      6.43657     10.36567        -0.026997     -0.032666      0.017130
Li	      8.41960      8.31764      8.37308        -0.013012      0.016849      0.006921
Li	      6.50431      6.47848      8.29701         0.007760     -0.090611      0.028810
Sc	      4.20633      0.04450      4.08925         0.070071     -0.055736      0.079559
Sc	      2.18534      4.30612      2.15205        -0.097191      0.050347     -0.036653
Sc	      4.16515      8.36324      4.18225        -0.101239      0.192074     -0.157475
Ti	      6.32071      4.28891      6.21244         0.194369      0.284055     -0.075919
Mn	      2.17930      4.19336      6.23535         0.068069     -0.032321      0.051827
Cr	      4.25856      8.45954      8.31459         0.039101      0.087854      0.058112
Fe	      6.62872      6.63324     12.45636         0.006961     -0.068471     -0.087597
Co	      4.23775      6.32545      6.27778        -0.167219     -0.027004     -0.044076
Ni	      4.31530      6.32890      2.14883        -0.039276      0.011508      0.052026
O	      2.18711      2.16807      2.08756         0.074218     -0.017570     -0.027103
O	      4.28044      4.20089      1.89187        -0.015329     -0.140649      0.111822
O	      4.29789      2.10933      4.03156        -0.013975      0.026177      0.029397
O	      6.39889      4.21647      4.35291        -0.116103      0.083648      0.079436
O	      6.40001      2.20650      6.31485        -0.029676      0.171283     -0.075109
O	      8.32914      4.35335      6.24915         0.066607     -0.109490      0.036626
O	      2.08272      4.19823      4.27395         0.026448     -0.020538      0.000891
O	      4.24283      6.32628      4.28491         0.010881     -0.028379     -0.323087
O	      4.34293      4.36636      6.30508        -0.069011     -0.096466     -0.040723
O	      6.19685      6.28871      6.28545         1.067323     -0.205982     -0.051866
O	      6.46465      4.19610      8.31430        -0.049575      0.126796     -0.051631
O	      8.61091      6.33591      8.34856        -0.099133     -0.045447      0.011250
O	      2.18394      6.27063      6.23987        -0.760581     -0.088962     -0.044553
O	      4.24161      8.31581      6.27563         0.050080      0.002013      0.042659
O	      4.22144      6.46211      8.24716        -0.090489     -0.030303      0.406148
O	      6.30062      8.45259      8.12936        -0.029845      0.019722      0.052763
O	      6.33163      6.31426     10.60377        -0.058325     -0.031306     -0.138470
O	      8.53753      8.55731     10.37172         0.020603     -0.018499      0.094622
