# total energy = -238.55300014 eV
 
CRYSTAL
PRIMVEC
-0.020079 6.383502 6.223384 
6.397992 -0.034553 6.237275 
4.266599 4.266628 -0.023017 
PRIMCOORD
36 1
Li	      4.23912      4.24490     -0.01203         0.025479      0.000879     -0.002478
Li	      4.34819      6.40135     10.38676         0.052055     -0.018588     -0.020468
Li	      4.20905      6.39632      2.18926        -0.035299      0.011639     -0.049552
Li	      2.18662      4.23123      2.05514         0.039470      0.005223     -0.026910
Li	      6.14020      6.58686      4.12943        -0.040240     -0.003475     -0.024860
Li	      4.20602      4.27915      4.16159        -0.037606     -0.003545      0.017952
Li	      4.40314      8.35078      4.14202        -0.061692      0.006097     -0.002382
Li	      4.26332      6.42992      6.10232        -0.029427     -0.002309      0.047924
Li	      6.40535      6.33614      8.33848         0.039434     -0.023759     -0.011655
Sc	      6.30279      4.33669      2.09164        -0.004470     -0.031804      0.012150
Sc	      2.20420      6.27267      4.12445        -0.048093     -0.001670     -0.002106
Sc	      4.32517      4.28088      8.27318        -0.044719      0.005821      0.011161
Ti	      6.44082      4.38639      6.18978         0.042648      0.251678      0.041019
Mn	      6.36787      2.04069      4.18893         0.025125     -0.043116     -0.023065
Cr	      4.25280      2.10749      2.09446         0.032661     -0.023824      0.045307
Fe	      2.20824      8.56365      6.20647        -0.154032      0.048846     -0.048240
Cu	      6.30267      8.42783      6.16980        -0.003711      0.012759      0.104069
Ni	      8.56115      6.33264      6.22475         0.007468     -0.026533     -0.032983
O	      2.21872      2.12343      2.02966         0.022511      0.022781      0.091905
O	      4.29044      4.10787      2.07971        -0.034844     -0.010426      0.028917
O	      4.47824      2.05550      4.12866         0.029506     -0.001883     -0.098625
O	      6.39029      4.05165      4.20150         0.002626     -0.040308      0.046723
O	      6.41744      2.16803      6.07722         0.115745      0.010272      0.005229
O	      8.38845      4.16803      6.21373        -0.036993     -0.030791      0.002479
O	      2.07461      4.25181      4.29453         0.000515     -0.024359     -0.134305
O	      4.18903      6.40548      4.12495        -0.015082     -0.015226      0.009005
O	      4.40114      4.17121      6.22808         0.123071      0.092366     -0.027174
O	      6.48096      6.24496      6.13551        -0.095164     -0.351771     -0.034237
O	      6.34380      4.25147      8.13167         0.031807      0.003507     -0.099240
O	      8.52745      6.43313      8.27700        -0.000790     -0.004306      0.120594
O	      2.09301      6.54035      6.24306        -0.004939      0.094441     -0.007542
O	      4.16452      8.53910      6.28717         0.055674     -0.003588      0.012762
O	      4.17350      6.39207      8.30703         0.008998      0.042940     -0.019980
O	      6.32983      8.52294      8.29233        -0.018265      0.013329      0.076476
O	      6.40733      6.56408     10.37983         0.005523      0.033061      0.006020
O	      8.35833      8.47043     10.39671         0.005050      0.005641     -0.013894
