# total energy = -103.60963592 eV
 
CRYSTAL
PRIMVEC
2.093403 4.125320 2.075148 
4.206510 -2.056657 -2.106942 
0.031716 4.106347 -4.144305 
PRIMCOORD
16 1
Li	      0.08803      4.10134     -4.15644         0.029081     -0.006348      0.008652
Li	      2.11085      2.08726      0.04952        -0.000277     -0.000758      0.020735
Li	      2.09320      4.12460     -2.08569         0.002658     -0.005562     -0.019139
Li	      2.14127      2.06853     -4.18577        -0.009833      0.004025     -0.005517
Ti	      0.14414      2.04904     -2.15566         0.216625     -0.084690     -0.176852
Ti	      4.12502      4.16810     -4.17588        -0.246138      0.134685      0.032151
Ni	      4.17025      4.05969     -0.01548        -0.032686     -0.044884     -0.015389
Ni	      4.19607      2.05175     -2.10680        -0.023988      0.020325      0.005805
O	      2.02860      2.02547     -2.08903        -0.291752      0.112374     -0.001927
O	      4.30138      4.10159     -2.16820         0.027003      0.119349     -0.143653
O	      2.26732      4.07440     -4.17469         0.290665      0.021675      0.101372
O	      4.15678      1.98018     -0.05413        -0.000627     -0.271758      0.112008
O	      4.17803      0.00573     -2.07133         0.101896     -0.125385      0.004499
O	      2.11778      4.25007      0.03285        -0.037796      0.156334     -0.014337
O	      4.24106      2.03642     -4.14873        -0.004682     -0.024884     -0.130492
O	      2.01757      6.18977     -1.96018        -0.020151     -0.004499      0.222084
