# total energy = -238.69783436 eV
 
CRYSTAL
PRIMVEC
0.007581 6.329475 6.407411 
6.280560 -0.010846 6.426146 
4.181308 4.226133 -0.001543 
PRIMCOORD
36 1
Li	      8.35505      2.14529      6.44348        -0.009225      0.078789     -0.033065
Li	      4.21180      6.28651     10.62411         0.040758     -0.032627     -0.005759
Li	     10.38124      6.37760      8.66580         0.032078      0.055145      0.043662
Li	      6.20521      6.34901      4.25832        -0.025807      0.069190      0.061111
Li	      4.18760      4.28760      4.23198        -0.053463      0.027554      0.047697
Li	      8.37893      6.31758      6.57265         0.033922     -0.030593     -0.023148
Li	      8.46255      6.28482     10.49986        -0.021298     -0.012449      0.018360
Li	      8.42185      8.31492      8.54197         0.104635     -0.028056     -0.005451
Li	      6.43633      6.26821      8.55243         0.002015     -0.093725     -0.023992
Sc	      6.26326      0.05608      6.44750        -0.289683      0.066292     -0.180877
Sc	      6.42254      8.39464     10.57715         0.141857     -0.107324      0.072330
Sc	      6.30301      4.23102      6.39745         0.103369      0.029110      0.243717
Ti	      4.07225      2.04977      2.28249         0.207869     -0.197538      0.383952
Mn	      6.22681      4.20786     10.62694         0.084257      0.064231     -0.090476
Cr	      4.13501      6.35956      6.39964         0.097517     -0.039012     -0.082633
Fe	      2.16823      4.12700      6.39196        -0.014700     -0.019286     -0.164951
Cu	      6.24226      4.24884      2.22169        -0.041478      0.021488      0.020864
Cu	      8.34820      4.29793      8.59745         0.334527     -0.060268      0.110947
O	      8.41741      6.22219      8.55437        -0.048716     -0.248522     -0.023389
O	      2.20553      2.28392      2.15832        -0.249095      0.248158      0.024040
O	      4.24123      4.15040      2.15010        -0.000643     -0.087322      0.147133
O	      4.25649      2.07097      4.11128        -0.039679      0.028914     -0.441920
O	      6.29797      4.15941      4.27498        -0.075846      0.070746     -0.106976
O	      6.31736      2.10181      6.28821        -0.000978     -0.012067     -0.027363
O	      8.38030      4.24007      6.52774         0.140614     -0.033588     -0.458667
O	      1.95253      4.24202      4.35501        -0.061736     -0.036216      0.224039
O	      4.14390      6.49542      4.41752         0.010697     -0.053067     -0.019993
O	      4.13855      4.32254      6.39756         0.039753      0.018036      0.011126
O	      6.17295      6.36586      6.38228        -0.008484     -0.067944      0.015309
O	      6.34011      4.21270      8.48605        -0.440863     -0.029322     -0.074429
O	      2.11547      6.23785      6.55577        -0.060137     -0.005370      0.110042
O	      4.23550      8.41563      6.52233         0.003138      0.032621      0.155232
O	      4.04252      6.44256      8.45167         0.185321      0.228816      0.042134
O	      6.16873      8.29886      8.48301        -0.109351      0.102609      0.040208
O	      6.26226      6.24581     10.78176         0.057548      0.073654      0.005653
O	      8.46392      8.44451     10.61567        -0.068690     -0.021057     -0.014465
