# total energy = -239.12445080 eV
 
CRYSTAL
PRIMVEC
0.023523 6.297364 6.416930 
6.292457 0.020647 6.419952 
4.194772 4.199883 0.014094 
PRIMCOORD
36 1
Li	      6.24486      0.09609      6.40325         0.010527     -0.016616     -0.007844
Li	      6.28200      4.22360      2.29053         0.005924      0.009714      0.131738
Li	      6.22032      2.18337      4.40163         0.021097      0.012337      0.021153
Li	      8.34193      4.26910      8.53927        -0.001692     -0.028496     -0.019401
Li	      4.22757      4.19460      4.42742         0.034973      0.012523      0.049420
Li	      4.33359      2.10877      6.34576        -0.004309     -0.021075     -0.021386
Li	      6.24702      4.15406      6.40240         0.009286      0.018947     -0.021326
Li	      6.32496      4.23982     10.64027        -0.015876     -0.016479     -0.074040
Li	      4.18244      6.25073      6.38255        -0.012637      0.006195     -0.034410
Sc	      8.30901      2.11457      6.43462         0.067961      0.026779     -0.037340
Sc	      6.21861      6.33005      4.40727        -0.013734     -0.060229      0.043897
Sc	      4.24168      4.22207      8.43828         0.032217     -0.002946     -0.020841
Ti	      4.23417      2.30452      2.11050        -0.024378      0.354237     -0.091897
Mn	      2.10702      6.23564      4.28889        -0.005505      0.038959      0.016440
Cr	      6.33469      6.26261      8.51293         0.039153     -0.004034     -0.025279
Fe	      8.35282      4.26105      4.35292         0.175688     -0.090531     -0.075907
Ni	      4.20728      6.25724      2.13169         0.050788     -0.030172      0.047940
Ni	      2.11619      4.22545      6.39410        -0.060862     -0.005602      0.025125
O	      2.19994      2.11086      2.16129         0.112074      0.012325      0.033863
O	      4.26204      4.12308      2.16423        -0.022852     -0.366568     -0.025300
O	      4.16396      2.05998      4.15147         0.009391      0.129520     -0.027314
O	      6.40619      4.27436      4.28326        -0.201334      0.021620      0.021496
O	      6.31563      2.09302      6.54146         0.013646      0.017969     -0.222659
O	      8.46343      4.16113      6.23133         0.014259     -0.018194      0.260091
O	      2.07797      4.29145      4.32121         0.009144      0.093141     -0.133613
O	      4.11150      6.29141      4.19607        -0.122460     -0.002326      0.110057
O	      4.15668      4.20435      6.47671         0.098481     -0.000170     -0.010582
O	      6.28814      6.35595      6.46437        -0.003925     -0.114529      0.040705
O	      6.29365      4.25967      8.52600        -0.042882      0.051107      0.005114
O	      8.37446      6.29975      8.72200        -0.098177     -0.014779      0.050994
O	      2.10705      6.28061      6.18980        -0.032480      0.076809     -0.129923
O	      4.19371      8.35614      6.64413        -0.046557      0.010541      0.169364
O	      4.32184      6.31429      8.70119        -0.063701     -0.011613     -0.104611
O	      6.24421      8.34226      8.53821        -0.025864     -0.002204      0.107116
O	      6.41252      6.29441     10.55158         0.067559     -0.016209     -0.008886
O	      8.39895      8.30463     10.71110         0.027059     -0.069949     -0.041950
