# total energy = -243.93894284 eV
 
CRYSTAL
PRIMVEC
0.029765 6.339348 6.355180 
6.454985 0.007931 6.377234 
4.286042 4.223775 0.022380 
PRIMCOORD
36 1
Li	      4.22073      2.16567      2.28381        -0.043918      0.040027     -0.068934
Li	      6.28672      2.11505      4.30852         0.038730      0.003942      0.041825
Li	      4.23754      6.29876      2.23805         0.001291     -0.014064      0.017569
Li	      2.20649      4.29404      2.17711         0.039490      0.009852     -0.030891
Li	      2.23724      2.17279      4.16952         0.021411      0.009930      0.021899
Li	      4.21083      4.17982      4.17466        -0.076917     -0.049621      0.000952
Li	      8.61447      6.30659      6.38614         0.063546      0.001414     -0.001539
Li	      2.23529      6.22697      4.13130         0.045541      0.008989      0.026524
Li	      6.56013      6.30758      8.52896         0.033517     -0.006794     -0.003991
Sc	     10.67330      4.32709      6.46677        -0.012242      0.110956     -0.031711
Sc	      6.38180      4.32632      2.27455        -0.098341      0.002515      0.043734
Sc	      8.60353      8.29648      8.56172         0.040728     -0.152594      0.068197
Ti	      6.48925      8.31582      6.35698        -0.119856     -0.213186     -0.122599
Mn	      4.39331      6.44387     10.55086         0.022886      0.023266      0.048307
Cr	      4.26819      6.35652      6.34152         0.029154      0.095065     -0.151314
Fe	      6.59143      4.15152      6.38964        -0.059534      0.017901      0.062483
Fe	      6.56897      4.20542     10.48723        -0.094596      0.057730      0.032579
Co	      8.56642      2.14536      6.43397         0.122617      0.078485     -0.025077
O	      2.16463      2.08744      2.04775        -0.008656      0.034554     -0.431634
O	      4.34560      4.22021      2.10707         0.067345     -0.013755      0.031731
O	      4.34836      1.97013      4.23650        -0.092523      0.029917      0.057305
O	      6.58065      4.23486      4.36879         0.016075      0.023090     -0.142812
O	      6.49594      2.17394      6.34375        -0.115378     -0.045854      0.056226
O	      8.56178      4.27124      6.44502         0.121292     -0.246563      0.031698
O	      2.10741      4.23618      4.39468         0.015125     -0.043139      0.161854
O	      4.27210      6.49046      4.35511         0.010775     -0.147544      0.001431
O	      4.21889      4.29620      6.33736        -0.084269     -0.002339      0.003126
O	      6.32461      6.39257      6.37588         0.014884      0.165278     -0.016107
O	      6.41986      4.23444      8.43093        -0.053855      0.041781      0.015561
O	      8.58582      6.36101      8.53499        -0.005316      0.144059     -0.065244
O	      2.17584      6.24920      6.38661         0.098620      0.089652      0.036245
O	      4.41068      8.42436      6.31011         0.172542     -0.084550      0.047542
O	      4.23971      6.28940      8.36728        -0.002842      0.001100      0.001563
O	      6.50657      8.46677      8.29569        -0.018085      0.014229     -0.051328
O	      6.39565      6.26782     10.66906        -0.003991      0.055470     -0.049603
O	      8.74405      8.63402     10.64165        -0.085247     -0.039200      0.384437
