# total energy = -245.27409996 eV
 
CRYSTAL
PRIMVEC
0.024735 6.563043 6.282256 
6.384450 0.007542 6.300514 
4.255841 4.387969 0.004397 
PRIMCOORD
36 1
Li	      6.49618     10.67697      8.44244         0.013963     -0.016499      0.020517
Li	      4.54940      8.61424      8.43964        -0.023537     -0.088104      0.012196
Li	      4.41579      6.46472     10.25682         0.046058     -0.022510     -0.029772
Li	      6.47738      8.67257     10.27255         0.002053     -0.039423      0.009455
Li	      8.50351      4.45241      8.42946        -0.013716      0.024322     -0.009995
Li	      8.39534      6.70360     10.40572        -0.033353      0.096927     -0.014103
Li	      6.46689      8.65518      6.52092         0.006663     -0.011402      0.012395
Li	      8.30275      8.81622      8.52234         0.021562      0.027697      0.044435
Li	      6.40411      6.82635      8.50309         0.032965     -0.007764      0.035691
Sc	      4.33000     10.88831      6.29295         0.078454     -0.042950      0.021648
Sc	     10.52370      6.60620      8.45668        -0.063156      0.045772      0.044645
Sc	      6.41318      4.46422      6.34817        -0.044623     -0.011908      0.021723
Ti	      2.24915      2.20430      4.04065         0.057630     -0.032357     -0.256720
Mn	      4.22463      4.38189      4.13917        -0.016272      0.030913     -0.014416
Cr	      6.41432      4.44272     10.43178         0.019920     -0.033396     -0.017021
Fe	      8.55718      8.75494     12.50275        -0.001863      0.057640      0.138303
Fe	      8.44180      6.57565      6.37004         0.006802      0.007801     -0.065393
Fe	      4.20365      6.58677      6.46590        -0.014910      0.000109     -0.278445
O	      2.08666      2.21286      2.17333        -0.001176      0.014642      0.160241
O	      4.22043      4.48254      2.18409        -0.019855      0.024399     -0.033288
O	      4.10751      2.16055      4.27578        -0.164802      0.016920     -0.055316
O	      6.19191      4.57822      4.21645         0.030317      0.084879     -0.018040
O	      6.46626      2.19313      6.31604        -0.008152      0.011352     -0.011666
O	      8.51714      4.27401      6.31939        -0.002022      0.041921      0.011824
O	      2.18747      4.19974      4.18275        -0.057428     -0.129399     -0.016569
O	      4.36532      6.73297      4.21859         0.015174      0.019961      0.029910
O	      4.27058      4.47851      6.09512        -0.009791     -0.009502      0.000505
O	      6.28793      6.51746      6.15990         0.016244     -0.030048     -0.035911
O	      6.40064      4.31453      8.41054        -0.002124     -0.023358     -0.049785
O	      8.53684      6.56559      8.33359         0.025880     -0.009280      0.117050
O	      2.17104      6.74099      6.27928        -0.055968     -0.045056      0.004493
O	      4.21888      8.76135      6.20157         0.050504      0.025658      0.031491
O	      4.28627      6.56597      8.28255         0.016472      0.011464      0.275693
O	      6.40871      8.76357      8.41356        -0.013862     -0.001620     -0.021387
O	      6.43982      6.42425     10.56112         0.058057      0.006357      0.025998
O	      8.66496      8.78660     10.55865         0.047888      0.005841     -0.090386
