# total energy = -241.32854459 eV
 
CRYSTAL
PRIMVEC
0.018327 6.195512 6.377865 
6.450027 0.007907 6.388082 
4.297275 4.134424 0.008216 
PRIMCOORD
36 1
Li	      0.03156      6.18263      6.36762         0.019587      0.015560      0.007168
Li	      4.31608      6.21050     10.55732         0.000254     -0.004166     -0.036177
Li	      4.26951      6.22075      2.25199        -0.008861     -0.008539      0.007239
Li	      6.27803      6.14792      4.35896        -0.069398     -0.055637     -0.036823
Li	      4.32405      4.28264      4.28163        -0.016959     -0.040972      0.009820
Li	      2.21814      6.22353      4.27418        -0.043820      0.041752      0.020572
Li	      4.33434      6.15228      6.35010        -0.037963     -0.031283     -0.006845
Li	      4.36051      4.18576      8.39306         0.022782     -0.027325     -0.026598
Li	      6.34029      6.17593      8.52726        -0.016442     -0.013729      0.006999
Sc	      2.22104      0.03293      2.19791        -0.005939      0.031257     -0.027994
Sc	     10.68673      8.20181     10.60756        -0.029696      0.072038     -0.050608
Sc	      2.17867      4.10503      6.35197         0.019852      0.062393     -0.030989
Ti	      2.24759      4.24049      2.19419         0.150874      0.378323     -0.002588
Mn	      8.58946      2.07709      6.39055        -0.007156      0.011350      0.031720
Cr	      6.41556      8.19386     10.63802         0.126738     -0.123833      0.012920
Cr	      4.31092      2.04562      6.34016         0.015276     -0.026522      0.031420
Cu	      6.37501      4.18054      6.37328        -0.036068      0.043599     -0.000536
Ni	      4.33135      8.22910      8.48945        -0.007653     -0.012323      0.138459
O	      2.18337      2.12389      1.98192        -0.085525      0.004150     -0.022380
O	      4.19131      4.09042      2.18387        -0.090934      0.117992      0.022027
O	      4.50724      2.04743      4.31785        -0.038293     -0.043106      0.022250
O	      6.47014      3.99336      4.25479         0.048508      0.041459      0.119789
O	      6.35244      2.17008      6.25480        -0.078268     -0.064217     -0.026853
O	      8.67186      4.08850      6.53876         0.125657      0.106745      0.049546
O	      2.09473      4.14511      4.17802        -0.024991     -0.015753     -0.092265
O	      4.29990      6.24075      4.26109        -0.044085      0.131360     -0.002606
O	      4.22003      4.03963      6.38944        -0.131297     -0.115693     -0.059116
O	      6.58367      6.14057      6.33151         0.158884      0.108553      0.035311
O	      6.63696      4.14766      8.54329         0.064312     -0.029375     -0.116015
O	      8.67811      6.11270      8.38539        -0.001306     -0.379172      0.004009
O	      2.12287      6.26617      6.45176        -0.012483     -0.089601      0.087881
O	      4.37755      8.26864      6.35138         0.052266      0.008315     -0.061923
O	      4.24898      6.20833      8.52961        -0.080110     -0.125270     -0.033961
O	      6.41637      8.26094      8.54737         0.090566      0.067100      0.034897
O	      6.50066      6.34974     10.64418        -0.029202     -0.053192     -0.034514
O	      8.51866      8.28481     10.82215         0.000893      0.017763      0.026763
