# total energy = -241.08937966 eV
 
CRYSTAL
PRIMVEC
-0.021706 6.318508 6.195522 
6.730932 0.007631 6.167943 
4.469687 4.177662 0.021626 
PRIMCOORD
36 1
Li	      2.16257      8.32096      6.20493         0.022822      0.047113     -0.015387
Li	      6.69389      4.17037      2.09672        -0.009846     -0.013548      0.010760
Li	      4.51145      6.20969      2.08376         0.030486      0.034840      0.093702
Li	      2.34686      2.09348      4.18189        -0.076888      0.018770      0.000886
Li	      4.41215      4.18343      4.19215         0.072432      0.067840      0.065535
Li	      4.33703      2.21201      6.00829        -0.063918     -0.022692      0.052300
Li	      2.45373      4.26203      6.12805        -0.018279     -0.048153     -0.015571
Li	      4.44064      6.11669      6.17571         0.040227      0.084115     -0.063462
Li	      8.87257      8.37431      8.22637         0.052409      0.042014     -0.001882
Sc	      8.97853      4.21711      8.16842        -0.008572      0.118481      0.033809
Sc	      6.49644      4.12082      6.15036        -0.161547      0.087439     -0.022115
Sc	      6.71335      6.40839      8.18246         0.034468      0.032829     -0.145746
Ti	      4.39653      2.12522      2.02835        -0.081196     -0.168752      0.121628
Mn	      8.87181      4.16694      4.18464        -0.009113     -0.073810     -0.207389
Cr	      0.06799      4.21233      4.20200        -0.085925     -0.227418     -0.048916
Cr	      2.40186      6.35602      4.22802         0.114640      0.033680     -0.156227
Cu	      0.07892      0.04707      0.03728         0.020664     -0.129249      0.241715
Cu	      6.65579      2.11715      4.14821         0.004038      0.126272     -0.072757
O	      2.30128      6.31486      6.02509        -0.085135      0.079744      0.166353
O	      2.46258      2.13957      2.04891         0.185097     -0.029649     -0.063801
O	      4.38761      4.12409      2.05615        -0.008328     -0.094556      0.059724
O	      4.37740      2.01086      4.00300        -0.087616     -0.165789     -0.100170
O	      6.77275      4.08831      4.11145        -0.125922      0.047633      0.008974
O	      6.71634      2.01208      6.13234         0.060944     -0.064346      0.020792
O	      8.78242      4.19330      6.09428        -0.069893      0.027931      0.087742
O	      2.13803      4.33364      4.12214        -0.002000     -0.008636     -0.058052
O	      4.28137      6.39850      4.10665        -0.175310      0.005673      0.038848
O	      4.50117      4.15962      6.19674         0.151621      0.003694     -0.001055
O	      6.64768      6.21992      6.21509         0.030732     -0.012794      0.079801
O	      6.85333      4.23473      8.30497         0.032292     -0.032972      0.008771
O	      8.82035      6.32404      8.43780         0.014131     -0.026457     -0.087153
O	      4.50594      8.48770      6.26770         0.004392      0.028970      0.014003
O	      4.54929      6.41134      8.39533         0.003311      0.114198     -0.016899
O	      6.50741      8.43823      8.34911        -0.146347     -0.000038     -0.068124
O	      6.81200      6.30092     10.37989         0.324123     -0.047315     -0.012315
O	      9.25812      8.42161     10.31962         0.017006      0.164935      0.051682
