# total energy = -242.08408809 eV
 
CRYSTAL
PRIMVEC
0.004020 6.319002 6.361731 
6.315160 0.014518 6.351344 
4.232735 4.228620 -0.013061 
PRIMCOORD
36 1
Li	      2.20013      8.45066      6.30585         0.006875      0.010540      0.014157
Li	      4.42016      8.31127      8.41166         0.067730      0.029566      0.012266
Li	      6.35269      8.48674     10.52987        -0.006889      0.003300      0.004381
Li	      6.27125      6.30546      4.27695         0.017153     -0.000826     -0.025380
Li	      4.27575      4.27046      4.31081        -0.008242     -0.047650     -0.038475
Li	      6.30525      4.22786      6.16254         0.036646     -0.033005      0.007873
Li	      4.22930      8.45331      4.34502         0.011354      0.014254      0.012998
Li	      6.26515      8.41941      6.34743         0.006706      0.011540     -0.031801
Li	      6.19686      6.52395      8.46805         0.069420     -0.018740      0.018808
Sc	      6.37802      4.17774      2.20250        -0.034494      0.049083      0.065787
Sc	      2.04969      4.14016      2.17984        -0.011632     -0.031285      0.010059
Sc	      2.08704      6.35623      4.33475        -0.110360      0.002072      0.009220
Ti	      4.06964      2.20563      6.16801        -0.122805     -0.021664     -0.587449
Mn	      4.21958      6.32735      2.12576         0.026182     -0.056553     -0.044099
Cr	      4.22283     10.49313      6.33847        -0.011272      0.012305      0.076566
Cr	      4.22375      4.22543      8.46458         0.058725     -0.009645      0.029134
Ni	      8.46798     10.51554     10.60798         0.024068      0.083117     -0.022996
Ni	      4.33927      6.41926      6.32360        -0.040040     -0.022108     -0.055194
O	      1.89055      2.10444      2.09367        -0.064157     -0.006867      0.017887
O	      4.20895      4.33019      2.04540         0.005895      0.064242      0.002788
O	      4.22666      2.11473      4.34524        -0.040760      0.088507      0.580477
O	      6.41300      4.23038      4.18486        -0.153346      0.003798     -0.006435
O	      6.18386      2.01116      6.54563        -0.056750      0.055240      0.027340
O	      8.50947      4.34230      6.36611        -0.030215      0.061444      0.078176
O	      2.11747      4.30200      4.13787        -0.040087     -0.002438      0.071756
O	      4.20417      6.32256      4.11429         0.007573      0.001479      0.018699
O	      4.24624      4.13019      6.41313        -0.028770     -0.073671     -0.007190
O	      6.43691      6.32746      6.36321         0.224555      0.018417     -0.023078
O	      6.27197      4.02027      8.43001        -0.027651     -0.024926      0.016297
O	      8.53695      6.37148      8.45330        -0.020360      0.029567     -0.035365
O	      2.07603      6.35887      6.36896         0.022070      0.000271     -0.016851
O	      4.21016      8.48613      6.41788         0.042183     -0.076422     -0.027994
O	      4.25040      6.24466      8.41413        -0.007527     -0.002311     -0.063086
O	      6.45309      8.46532      8.46567         0.022951      0.028708     -0.036293
O	      6.30718      6.35386     10.71396         0.153118      0.009477     -0.044790
O	      8.46145      8.45893     10.46002         0.012153     -0.148816     -0.008196
