# total energy = -242.75229220 eV
 
CRYSTAL
PRIMVEC
-0.013486 6.352213 6.525930 
6.180618 0.031847 6.480459 
4.167306 4.251936 -0.025945 
PRIMCOORD
36 1
Li	      4.15686      4.25889      0.06057         0.011075     -0.002585      0.047940
Li	      6.11884      4.25738      2.23108         0.001492      0.007809      0.057321
Li	      4.17233      6.35080      2.15214        -0.002917      0.030170     -0.021067
Li	      6.23038      6.29579      4.43055         0.004864     -0.033778      0.033051
Li	      4.21195      4.25282      4.31483        -0.030460      0.053276     -0.015659
Li	      8.19942      6.40349      6.42151        -0.042651     -0.012052      0.023708
Li	      6.17924      4.35225      6.37241         0.002490      0.005116     -0.047768
Li	      6.23352      8.38030      6.46631         0.031830      0.000358     -0.055652
Li	      6.16141      6.42073      8.54947         0.046275      0.008631     -0.068872
Sc	      2.11654      4.27504      2.15843         0.002103      0.028215      0.030506
Sc	      2.06600      6.30547      4.38472         0.090095     -0.073695      0.003592
Sc	      4.12201      4.28387      8.56765         0.015779      0.022626     -0.032707
Ti	      8.14876      2.18074      6.58640        -0.287660      0.135498      0.148066
Mn	      0.02406      4.25915      4.36620        -0.016424     -0.017488      0.005101
Mn	      4.23582      6.36511      6.50144         0.026514      0.000093      0.032074
Cr	      6.13702      2.20739      4.27960         0.161176     -0.300205      0.015840
Co	      4.17052      8.47271      8.63720         0.052939      0.062833      0.036160
Cu	      4.07964      0.11523      4.35976         0.100444     -0.110464      0.008228
O	      2.15338      2.11993      2.00753        -0.029999      0.003586     -0.245135
O	      4.15322      4.07320      2.12279         0.003070     -0.080149      0.001636
O	      4.16134      2.08760      4.08788        -0.103759      0.028766     -0.047363
O	      6.30330      4.18008      4.29481        -0.067868      0.086943     -0.002876
O	      6.28753      2.11049      6.38797         0.283295      0.040516     -0.072595
O	      8.29200      4.09533      6.54871        -0.023116     -0.221527      0.135547
O	      2.09438      4.30294      4.26910         0.111800      0.032979     -0.016094
O	      4.14783      6.38939      4.53806        -0.018121     -0.035742      0.047345
O	      4.10007      4.42684      6.55622         0.028093      0.052353      0.020579
O	      6.10233      6.39189      6.47726        -0.069876     -0.031744      0.017125
O	      6.16367      4.22296      8.71108        -0.020248      0.006258      0.029918
O	      8.31036      6.41485      8.71145        -0.000535      0.012100      0.043412
O	      2.18635      6.51346      6.45264         0.063067      0.091080     -0.047056
O	      4.12124      8.36748      6.60939        -0.056606     -0.068996     -0.043633
O	      4.14652      6.44519      8.45224        -0.012014      0.007855     -0.150641
O	      6.13161      8.49528      8.77808        -0.015872      0.003931      0.068515
O	      6.12008      6.45881     10.89196        -0.055141      0.199865      0.018449
O	      8.19704      8.52479     10.85886        -0.183132      0.067569      0.043008
