# total energy = -242.26420995 eV
 
CRYSTAL
PRIMVEC
0.066164 6.361318 6.263554 
6.396843 0.039672 6.289554 
4.302709 4.295975 -0.011237 
PRIMCOORD
36 1
Li	      6.34069      0.15025      6.32623        -0.015652      0.034275      0.025091
Li	      6.44645      4.29091      2.29293         0.026746      0.007747     -0.020350
Li	      4.10338      0.10841      4.07823        -0.092451      0.023280     -0.120848
Li	      6.43468      2.15255      8.28380        -0.049727     -0.020771     -0.044922
Li	      6.49849      6.20442      4.13989         0.027392     -0.092878      0.047153
Li	      4.50189      4.23489      4.07388         0.027157     -0.011751     -0.034540
Li	      6.49914      4.22192      6.16410         0.063937     -0.044349     -0.020305
Li	      4.31186      4.34591      8.37436         0.059986      0.180496      0.032895
Li	      6.41031      6.42636      8.38686        -0.047143     -0.021866     -0.009035
Sc	      6.39765      4.36094     10.37589        -0.053506     -0.015135      0.113345
Sc	      8.55191      6.46920     10.37782         0.082336      0.026718     -0.035692
Sc	      6.45245      8.58915      6.38553         0.005973     -0.019644     -0.197359
Ti	      4.45579      6.28371      6.32604         0.140851     -0.131943      0.092978
Mn	      2.20785      4.22706      2.07629        -0.062704      0.158473      0.035057
Mn	      4.37342      2.10700      6.15910        -0.090016      0.025942      0.078569
Cr	      8.49179      2.19887      6.31627         0.080711     -0.020176     -0.068623
Co	      4.25002      2.17695      2.13313         0.026293      0.104684      0.580314
Ni	      6.37068      2.28201      4.16329         0.062312     -0.146437      0.097537
O	      2.26923      2.27151      2.03065        -0.026540     -0.067170      0.056021
O	      4.11623      4.11252      2.09791        -0.062053      0.613575     -0.222315
O	      4.30135      2.14491      4.07499        -0.039875     -0.144517      0.671909
O	      6.43645      4.28069      4.18633         0.031204      0.081947      0.028933
O	      6.52310      2.13146      6.27203         0.084130      0.049964      0.057144
O	      8.57269      4.20935      6.45587         0.012821     -0.063698      0.080578
O	      2.11862      4.32706      4.14873         0.020464     -0.011707     -0.086288
O	      4.26883      6.49028      4.34536         0.009673     -0.018741      0.082941
O	      4.23151      4.38636      6.39229         0.010346      0.146065     -0.000110
O	      6.35182      6.50685      6.25764        -0.192420     -0.001388      0.067809
O	      6.62083      4.25340      8.40578         0.026095     -0.039981     -0.101633
O	      8.65291      6.23020      8.32720        -0.049352     -0.048619     -0.008262
O	      2.29954      6.42437      6.25090        -0.006123      0.030383      0.007517
O	      4.29706      8.45284      6.32993         0.043147     -0.069597     -0.820658
O	      4.33338      6.53946      8.21435        -0.032487     -0.599852     -0.347689
O	      6.29924      8.56011      8.36557        -0.024080      0.022107      0.025787
O	      6.51564      6.39151     10.48157        -0.008080      0.029847     -0.039478
O	      8.61710      8.55339     10.48825         0.010634      0.054716     -0.003471
