# total energy = -101.41327907 eV
 
CRYSTAL
PRIMVEC
-0.000022 2.221653 2.221922 
3.783036 -0.000041 0.000060 
0.000457 9.403265 -9.398161 
PRIMCOORD
16 1
Li	      3.78233      0.34346     -0.23971         0.000276     -0.018620      0.010241
Li	      3.78226      4.56673     -0.12602        -0.000382      0.016091      0.015230
Li	      3.78238      4.45585     -4.35932         0.000219      0.016627     -0.021545
Li	      3.78253      9.22978     -4.87389         0.000651      0.009170      0.010934
Ti	      1.89087      7.05357     -4.65166         0.000074     -0.001495      0.279770
Ti	      1.89087      9.46179     -7.04367         0.000287      0.263028      0.001647
Ni	      1.89092      2.55002     -0.25440        -0.001667     -0.107930      0.107562
Ni	      1.89072      4.44332     -2.14892         0.000653      0.110023     -0.109629
O	      3.78251      7.04466     -5.00885         0.000152      0.011096      0.048574
O	      1.89097      8.98681     -5.11572         0.000941     -0.028558     -0.039997
O	      3.78236      4.77633     -2.46322        -0.002037      0.028093     -0.033293
O	      1.89097      5.06383     -5.04962         0.000603      0.028319     -0.332268
O	      3.78231      2.23996      0.07883         0.000127     -0.033626      0.029633
O	      1.89079      2.38710     -2.31128        -0.000864     -0.006182     -0.007237
O	      3.78251      9.10380     -7.05623         0.001252      0.047670      0.015579
O	      1.89110      9.06359     -9.03364        -0.000285     -0.333705      0.024800
