# total energy = -244.63908239 eV
 
CRYSTAL
PRIMVEC
0.008285 6.414137 6.604416 
6.165634 0.063288 6.548138 
4.133541 4.262468 0.019605 
PRIMCOORD
36 1
Li	      6.15471      6.48622     12.97010        -0.068699      0.034460     -0.061488
Li	      8.37984     10.55385     11.03478         0.026782     -0.007686      0.114695
Li	      6.28090      8.50956     11.10153         0.000127     -0.023151      0.100964
Li	      6.12670      2.27123      8.66286        -0.072850      0.225201     -0.039269
Li	      6.19314      4.24726      6.71397         0.026244     -0.013617      0.135536
Li	      6.06573      4.50916     10.90705         0.050522     -0.009149     -0.152891
Li	      4.14518      6.41509      6.60095         0.031124     -0.005710     -0.049135
Li	      4.27757      4.34613      8.69948         0.181868     -0.088262     -0.104480
Li	      6.18999      6.30412      8.92622         0.029806     -0.114669      0.015837
Sc	      6.07400      6.44019      4.39513        -0.089619      0.201123      0.154169
Sc	      4.24570      2.11093      6.59802         0.063993     -0.232170      0.211254
Sc	      6.10125      8.58732      6.59987         0.038301     -0.140257     -0.307011
Ti	      2.15627      6.39802      8.78254         0.136349      0.011698      0.001791
Mn	      4.16528      8.53339      8.82535        -0.103152      0.067503      0.026470
Mn	      8.19180      6.59426     10.83895        -0.083217     -0.099982     -0.080955
Cr	      4.11485      4.29127      4.39607        -0.197251      0.075747      0.126360
Co	      8.10048      4.38457      8.65372         0.657953     -0.008111      0.120085
Co	      8.21801      2.19464      6.56051        -0.099282      0.242783     -0.080271
O	      2.04540      2.06750      2.12965         0.372625     -0.155816      0.002929
O	      4.09266      4.20912      2.38062         0.268220     -0.455612     -0.075186
O	      4.06475      2.25788      4.41996         0.007214      0.021366     -0.159808
O	      6.10505      4.37885      4.18096         0.028309     -0.046893     -0.186520
O	      6.26313      2.18451      6.56154         0.070225     -0.044806      0.005560
O	      8.25810      4.19890      6.60821        -0.016806     -0.166683     -0.236155
O	      2.07575      4.35076      4.42316         0.094209     -0.053875      0.134448
O	      4.01571      6.31497      4.40681         0.079099     -0.124003     -0.019807
O	      4.09093      4.24928      6.44181        -0.069155      0.051476     -0.075046
O	      6.19833      6.51977      6.43751        -0.045191      0.088762     -0.052100
O	      6.27992      4.31619      8.78648        -0.908134      0.006911     -0.037385
O	      8.24631      6.43274      8.69170         0.001931      0.181013      0.038246
O	      2.03670      6.51158      6.80219         0.025406     -0.008815      0.209023
O	      4.05192      8.54533      6.65709         0.031308     -0.023468      0.158102
O	      4.03017      6.45317      8.85549        -0.249611      0.382722     -0.034951
O	      6.22066      8.74745      8.69811        -0.288296      0.175016      0.099060
O	      6.32554      6.51447     10.92968         0.083582      0.043774     -0.010776
O	      8.26503      8.51283     11.24463        -0.013933      0.013180      0.108705
