# total energy = -240.78483162 eV
 
CRYSTAL
PRIMVEC
-0.023115 6.420274 6.377423 
6.335976 -0.019734 6.373680 
4.205094 4.258440 0.006067 
PRIMCOORD
36 1
Li	      0.05424      6.23191      6.24843        -0.008098      0.011513     -0.021611
Li	      2.21191      8.47636      6.26569        -0.037220      0.012713      0.007301
Li	      2.17710      6.34575      8.50758        -0.012848     -0.015121      0.101424
Li	      8.35363      4.20799      4.23415        -0.096488     -0.045155     -0.044236
Li	      2.11608      4.25226      2.16451         0.018313      0.020585     -0.008688
Li	      4.17393      8.53147      4.51827        -0.020253     -0.004324     -0.013104
Li	      2.01162      4.41503      6.34507         0.046688     -0.006198      0.035855
Li	      4.06790      6.54810      6.39510         0.003907      0.007462      0.063517
Li	      8.31247      8.62202      8.52841         0.004143      0.015249      0.017126
Sc	      4.15127      8.55487      8.41657         0.009833      0.015134     -0.064185
Sc	      0.07614      2.17584      2.12643         0.006160     -0.006391     -0.021290
Sc	      6.25669      6.34077      8.56506        -0.060250     -0.039790      0.104331
Ti	      8.42734      6.25548      6.33816         0.052878     -0.156926      0.052462
Mn	      4.21345      4.30866      4.27375         0.005017      0.013792     -0.032796
Mn	      2.08149      6.42391      4.40000         0.051359     -0.063912     -0.044518
Cr	      6.29522      4.26654      6.33509         0.033858     -0.026158     -0.003319
Cu	      6.35507      8.52124     10.60467        -0.028695     -0.053778      0.035969
Ni	      2.05838      2.22597      4.28370         0.009298      0.139218     -0.015567
O	      2.08991      2.19146      2.24127        -0.010149      0.029591     -0.070773
O	      4.23506      4.29876      2.29717         0.029535      0.006131     -0.005009
O	      4.23533      2.08911      4.34442        -0.078573      0.021502      0.028654
O	      6.18048      4.41941      4.34825         0.019774      0.062999     -0.029236
O	      6.22489      2.21534      6.31813        -0.034324      0.015411      0.104750
O	      8.35225      4.38034      6.29170        -0.001173      0.203513     -0.008364
O	      2.26148      4.39321      4.28387        -0.035110     -0.006377      0.020923
O	      4.07884      6.51627      4.22430        -0.010038      0.052358      0.008487
O	      4.28085      4.12779      6.23855         0.026613     -0.046404      0.034621
O	      6.42907      6.31837      6.36776         0.073871     -0.012317      0.065911
O	      6.31616      4.24282      8.32956        -0.001896     -0.025590     -0.057626
O	      8.44834      6.36263      8.32958        -0.011876     -0.010303     -0.028523
O	      2.08626      6.41842      6.21236        -0.026378      0.013106     -0.039049
O	      4.18084      8.55652      6.47133         0.030961     -0.028733      0.013314
O	      4.24482      6.43554      8.56129        -0.026107      0.043493     -0.015915
O	      6.27129      8.47354      8.61781         0.012774     -0.008847     -0.117343
O	      6.54764      6.20447     10.60404        -0.040912     -0.135528     -0.032821
O	      8.30903      8.28398     10.62779         0.105407      0.008080     -0.020671
