# total energy = -239.87904793 eV
 
CRYSTAL
PRIMVEC
0.025585 6.407228 6.514479 
6.156998 0.053658 6.488050 
4.147127 4.296867 -0.007398 
PRIMCOORD
36 1
Li	      2.13832      8.46506      6.44543         0.001188     -0.057457      0.028213
Li	      4.13374      8.49142      8.59769         0.014835     -0.016607      0.005724
Li	      8.31711     10.61713     10.79381         0.025094     -0.013527     -0.081055
Li	      8.17890      4.43776      8.68144         0.018976     -0.020415      0.082780
Li	     10.25469      8.60640     10.83202         0.024797     -0.004078      0.058308
Li	      8.24290      6.55104     10.85964        -0.029212      0.012427     -0.012368
Li	      6.18609      8.60414      6.51451        -0.057539      0.046109     -0.031431
Li	      4.09391      6.50731      6.55407        -0.021016      0.020039      0.037709
Li	      4.11167      4.36123      8.69191        -0.035246      0.061322      0.036808
Sc	      6.06069      2.34637      8.63429         0.159008      0.020207      0.086007
Sc	      2.11487      2.17558      4.34512         0.023326     -0.117538     -0.223284
Sc	      4.08346      4.32866      4.37480         0.093353      0.072567     -0.224747
Ti	      4.09573     10.52615      6.47886         0.218615     -0.796476     -0.119983
Mn	      2.16013      6.39041      8.60317        -0.003105     -0.102981      0.065850
Mn	      6.16878      6.42420      8.67677        -0.160850      0.106763      0.171702
Cr	      6.28049      8.57673     10.81239        -0.206794      0.038217     -0.106300
Cu	      4.11395      2.20357      6.51755        -0.000958     -0.006513      0.008985
Cu	      6.25598      4.35557      6.55814         0.092510     -0.029197     -0.025775
O	      8.11575      8.59317     10.89738         0.402009      0.020349      0.104612
O	      2.02537      1.98666      2.21125        -0.030964      0.179794      0.062208
O	      4.18484      4.36891      2.04625        -0.116295      0.064565     -0.079225
O	      4.21904      2.21943      4.25587        -0.153137      0.016765      0.021670
O	      6.23641      4.23565      4.06713        -0.001170      0.105750     -0.190006
O	      6.13194      2.20177      6.41849        -0.084978      0.087269      0.070241
O	      8.28993      4.39937      6.51381        -0.046726      0.133760      0.044274
O	      2.11359      4.17811      4.34627        -0.000612     -0.017298      0.064585
O	      4.17490      6.39113      4.24884        -0.003295     -0.039986     -0.015703
O	      4.29971      4.26591      6.41344        -0.142567     -0.040691      0.101599
O	      6.27104      6.39966      6.46103         0.048402     -0.032166     -0.046083
O	      6.17485      4.38127      8.75599        -0.027988      0.019270      0.061764
O	      8.16256      6.49411      8.71989         0.029426     -0.025845     -0.038130
O	      1.97785      6.37759      6.69612        -0.034858      0.013016     -0.004866
O	      4.12495      8.70948      6.47842        -0.008838      0.633377     -0.000734
O	      4.17844      6.44071      8.61412         0.029118     -0.058175     -0.063713
O	      6.21749      8.57037      8.81302         0.047029     -0.186730     -0.150128
O	      6.20490      6.58444     11.01861        -0.061539     -0.085888      0.300493
