# total energy = -246.81301146 eV
 
CRYSTAL
PRIMVEC
0.058879 6.218231 6.613478 
6.242231 0.028578 6.642022 
4.177438 4.179675 0.004397 
PRIMCOORD
36 1
Li	      4.26738     10.31257      6.66882         0.011382      0.100368     -0.020153
Li	      2.40662      8.28726      6.60205        -0.013491      0.029343     -0.031086
Li	      4.23558      8.31287      8.61936        -0.008819      0.028509     -0.024242
Li	      6.25232      2.12512      4.42426        -0.011638     -0.018901      0.063990
Li	      4.23125      6.20119      2.19373        -0.046018      0.014855     -0.050555
Li	      4.19701      4.11698      4.32152        -0.016144     -0.037128     -0.039176
Li	      4.23995      8.32698      4.67576         0.015610      0.011513     -0.026233
Li	      4.21655      6.46879      6.58914         0.020838     -0.103565     -0.078956
Li	      8.40363      8.34484      8.95507         0.026323     -0.021373      0.039214
Sc	      2.19985      4.07177      2.18614         0.009379      0.019449      0.003830
Sc	      6.13698      4.13714      6.63177        -0.104737     -0.093448      0.042887
Sc	      2.24182      6.32061      4.52508        -0.021103     -0.061404      0.019966
Ti	      6.22413      6.37026      8.94426         0.018913     -0.004862      0.228700
Mn	      2.03180      2.08714      4.34283        -0.049074      0.111491     -0.002946
Mn	      4.15104      2.10811      6.60662         0.098827      0.095752      0.032190
Cr	      8.39125     10.37226     11.05578         0.134022     -0.073463      0.055789
Fe	      2.05426      6.19998      8.63756         0.161052     -0.002830      0.019826
Co	      6.28355      8.34996      6.64946        -0.001801      0.017323     -0.009186
O	      2.08326      2.01108      2.12047        -0.004437     -0.005080      0.058128
O	      4.24570      4.16669      2.18178        -0.067549      0.007538      0.015851
O	      3.97045      1.98472      4.45721         0.038488      0.029967     -0.018365
O	      6.30268      4.27343      4.43207        -0.061818     -0.058670     -0.032252
O	      6.04626      2.13035      6.60110        -0.026127      0.046569      0.017118
O	      8.30004      4.27886      6.56474        -0.028996     -0.025369     -0.009238
O	      2.12379      4.07653      4.27269         0.010019     -0.033158     -0.066621
O	      4.27097      6.23955      4.43751         0.055800     -0.021127     -0.047625
O	      4.10332      4.04677      6.62961         0.084471      0.038847      0.023846
O	      6.31644      6.30969      6.80198        -0.044378     -0.032837      0.011113
O	      6.32466      4.34134      8.68340        -0.037806      0.039245     -0.027772
O	      8.24839      6.23892      8.98937        -0.068205      0.009273     -0.019064
O	      2.18837      6.17498      6.64705         0.009017      0.036082      0.003818
O	      4.36343      8.36461      6.62341        -0.003849     -0.025261      0.026324
O	      4.25486      6.21750      9.00245         0.025521      0.001091      0.015489
O	      6.30939      8.29464      8.89670        -0.016674     -0.081943      0.050533
O	      6.25683      6.26943     10.88111        -0.066025      0.032568     -0.209542
O	      8.39729      8.36402     11.13379        -0.020972      0.030636     -0.015602
