# total energy = -244.70059790 eV
 
CRYSTAL
PRIMVEC
0.052047 6.115470 6.467170 
6.463172 -0.021470 6.542191 
4.312710 4.130569 -0.018697 
PRIMCOORD
36 1
Li	      8.51053      2.07782      6.51549        -0.007111      0.020549     -0.043090
Li	      4.38055      2.06313      2.25495        -0.013434      0.001405      0.052380
Li	      4.36797      0.16673      4.35728        -0.011488     -0.005665     -0.001206
Li	      6.34927      2.04178      4.44102        -0.007737      0.026308     -0.068753
Li	      6.49568      1.99286      8.50695        -0.022585      0.004440      0.017070
Li	      2.34471      1.98957      4.34308         0.005052     -0.002219      0.017013
Li	      4.34872      2.00022      6.31816        -0.065849     -0.038890     -0.009714
Li	      6.46488      8.17454      6.59479         0.066239     -0.024984     -0.043885
Li	      6.54688      6.14437      8.60527         0.054394      0.009681     -0.014181
Sc	      0.05227      4.09811      4.33696        -0.034003     -0.070618     -0.114715
Sc	      4.43502      6.19959      6.55773         0.052757     -0.063128     -0.049648
Sc	      8.58750      8.09484      8.68823         0.063221     -0.064499      0.042037
Ti	      2.10845      0.07142      2.16286        -0.008344      0.117539      0.124641
Mn	      4.29929      4.02210      4.29311        -0.027565      0.013193      0.227370
Mn	      6.51400      4.02966      6.50414         0.050270      0.161612     -0.060273
Cr	      2.16762      6.13759      4.40016         0.189011      0.037404      0.003060
Fe	      8.63802      4.01968      8.57896         0.035100     -0.009966      0.129493
Cu	      6.44413      0.04587      6.52768        -0.055896      0.058815     -0.043789
O	      2.14966      2.01215      2.13723        -0.077418     -0.144286     -0.058198
O	      4.33055      4.12989      2.01128         0.035815      0.034841     -0.152166
O	      4.30252      2.17561      4.30087         0.071231     -0.160140     -0.009579
O	      6.27745      4.14702      4.08861         0.041548     -0.023891     -0.083478
O	      6.45728      2.11187      6.49407         0.033787     -0.344264      0.003988
O	      8.47202      4.10335      6.63865        -0.128285     -0.044658     -0.121855
O	      2.25405      4.09303      4.22523        -0.111738      0.084276      0.022402
O	      4.20115      6.03897      4.43692        -0.045219      0.133623     -0.030667
O	      4.50569      4.05718      6.58379        -0.123659      0.048908      0.064837
O	      6.46627      5.99776      6.51126        -0.067434      0.124849      0.066402
O	      6.52097      4.04509      8.78973        -0.031952      0.013630      0.003414
O	      8.59925      6.04015      8.91783        -0.010810      0.081406     -0.035243
O	      2.30415      6.12419      6.52037         0.136672      0.018747      0.003586
O	      4.43742      8.22219      6.37573         0.040139      0.040174      0.087386
O	      4.16542      6.11281      8.64664        -0.020383     -0.033066      0.047537
O	      6.56451      8.31858      8.58777         0.003077     -0.022612     -0.046205
O	      6.61050      6.12645     10.98712        -0.083762      0.048701      0.027164
O	      8.75360      8.12180     10.77943         0.076356     -0.027217      0.046864
