# total energy = -243.51997456 eV
 
CRYSTAL
PRIMVEC
-0.019694 6.438120 6.305545 
6.392316 0.037780 6.249656 
4.295754 4.287774 -0.008421 
PRIMCOORD
36 1
Li	      8.45172      2.25156      6.23252        -0.018286      0.027402     -0.007492
Li	      8.48416      4.38750      4.30072        -0.015955      0.046558      0.023947
Li	      6.40487      6.44621      4.36621        -0.035429      0.007066      0.038157
Li	      4.32125      4.23841      4.34147         0.022951     -0.022991     -0.004497
Li	      4.24449      2.36406      6.21743         0.005790     -0.061082     -0.035656
Li	      6.16078      4.35904      6.19902         0.031854     -0.015349     -0.035709
Li	      2.37831      4.19653      6.23958         0.038772     -0.040768     -0.033037
Li	      4.41951      6.14268      6.26327         0.065594     -0.020168     -0.087322
Li	      4.28127      4.25545      8.10612         0.015389     -0.031763      0.028968
Sc	      2.12355      4.23992      2.06666         0.027858     -0.045545     -0.024064
Sc	      4.20591      8.57413      4.30370        -0.031323      0.020221      0.016966
Sc	      2.19332      6.40418      4.30537         0.051471     -0.065305      0.078820
Ti	      2.25151      6.50139      8.42303         0.197357      0.001511      0.075755
Mn	     10.62863      4.38175      6.26989        -0.009487     -0.001248     -0.010711
Mn	      4.31111      8.61695      8.37881        -0.030559      0.049357     -0.024267
Cr	      6.41462      8.62521     10.46958         0.001050     -0.031680      0.038086
Fe	      6.44390      6.44459      8.17270        -0.071777      0.071720      0.228567
Ni	      6.34371      2.20459      8.31325        -0.044850      0.015572     -0.006207
O	      2.07673      2.04512      2.12463        -0.006162     -0.120217      0.049787
O	      4.31883      4.30671      2.17633        -0.000688     -0.142141      0.053733
O	      4.42879      2.13708      3.95753         0.011920      0.012907      0.048617
O	      6.47582      4.18773      4.01121         0.049267      0.043896     -0.208426
O	      6.37882      2.04962      6.20424         0.023061      0.038669     -0.099426
O	      8.70949      4.31684      6.29477        -0.057382      0.016290     -0.018171
O	      2.00537      4.34460      4.17750        -0.032133     -0.072544     -0.018441
O	      4.21555      6.54591      4.15609        -0.063136      0.067023      0.085140
O	      4.27251      4.28359      6.22770        -0.016025      0.005780      0.001279
O	      6.39644      6.45852      6.36298        -0.019201      0.007414     -0.284331
O	      6.42360      4.36638      8.39396        -0.006373      0.043653      0.023395
O	      8.50065      6.38631      8.40849        -0.021016     -0.013305      0.057426
O	      1.93000      6.44091      6.42545        -0.046538      0.031856      0.075316
O	      4.21868      8.78644      6.39873        -0.003219      0.003091      0.072383
O	      4.14874      6.56181      8.29400        -0.166336      0.068235     -0.014843
O	      6.42242      8.68875      8.43198         0.114950      0.010680      0.020029
O	      6.40945      6.52662     10.32010         0.022571      0.040391     -0.088152
O	      8.48839      8.53518     10.51126         0.016018      0.054814     -0.015617
