# total energy = -248.85242200 eV
 
CRYSTAL
PRIMVEC
0.022444 6.305976 6.681749 
6.300545 0.048843 6.652452 
4.214488 4.200340 0.018082 
PRIMCOORD
36 1
Li	      4.26490      4.18339      0.12977         0.001704     -0.032193      0.095276
Li	      4.27821      8.38073      8.88648        -0.010259      0.016247     -0.094403
Li	      4.11434      0.13031      4.37257         0.019532     -0.060612     -0.074697
Li	      6.40994      6.28332      4.60186         0.000595      0.013892      0.036087
Li	      4.21873      4.14062      4.57711         0.015772      0.008856     -0.011934
Li	      6.26283      4.25143      6.57261        -0.013312      0.015949     -0.014053
Li	      2.12616      6.28543      4.57408        -0.004000      0.025503      0.045337
Li	      2.25591      4.17188      6.65004        -0.058645      0.003485     -0.040586
Li	      4.16297      4.26371      8.64043         0.022659     -0.009140     -0.062643
Sc	      4.18554      6.33392      2.34367        -0.115199     -0.044778      0.106655
Sc	      2.20961      4.15811      2.33068         0.070790      0.063964      0.064779
Sc	      6.34586      4.36257     11.16270        -0.056031     -0.059037      0.052312
Ti	      8.37206      2.19456      6.62267         0.139457     -0.001913     -0.279531
Mn	      6.26705      2.12685      4.40771         0.027282      0.071450     -0.017021
Mn	      4.24780      6.19626      6.58034         0.053852     -0.004820     -0.038017
Cr	      4.22265      2.13937      6.63535        -0.049663      0.059373     -0.027169
Fe	      6.37416     10.43135      8.93002         0.045262     -0.008926      0.005600
Fe	      6.22770      6.41073      8.81930         0.051616      0.008054     -0.012422
O	      2.07977      2.07993      2.11265        -0.015451      0.016980     -0.049995
O	      4.25928      4.24572      2.25504        -0.064741      0.012374     -0.027902
O	      4.33083      2.08095      4.63976        -0.006737      0.002945      0.013599
O	      6.33234      4.08096      4.24140        -0.014480     -0.017307      0.087239
O	      6.32807      2.15244      6.76666         0.083862      0.001358      0.001538
O	      8.38462      4.16681      6.81536         0.024430     -0.099836     -0.001717
O	      2.06411      4.23706      4.37757         0.008562     -0.022340      0.037610
O	      4.18868      6.41386      4.39033        -0.010637      0.020683     -0.048787
O	      4.24982      4.11755      6.63076        -0.014187     -0.119712     -0.013720
O	      6.40869      6.30497      6.78335         0.092736      0.014657     -0.015017
O	      6.33346      4.30091      9.02423         0.034923     -0.020500     -0.016121
O	      8.40201      6.31321      8.74034         0.017629     -0.017887     -0.023165
O	      2.08978      6.46351      6.84194        -0.047235      0.131174     -0.048862
O	      4.03556      8.46341      6.58797        -0.181563      0.059869      0.060982
O	      4.23335      6.32811      8.81334        -0.047875      0.005585      0.052520
O	      6.31922      8.42727      8.85469         0.013622     -0.026071     -0.020511
O	      6.33585      6.45851     10.90779        -0.013406     -0.034925      0.001038
O	      8.32244      8.45813     11.37726        -0.000866      0.027600      0.277705
