# total energy = -240.98706480 eV
 
CRYSTAL
PRIMVEC
0.020114 6.411040 6.342808
6.289947 0.020834 6.342107 
4.198074 4.278176 0.009145  
PRIMCOORD
36 1
Li	      4.23999     10.50746      6.26847         0.004807     -0.071634     -0.105008
Li	      2.26724      8.57051      6.26362         0.056054      0.014907     -0.005994
Li	      4.20219      8.56802      8.40478         0.020577      0.041869     -0.034251
Li	      8.49734     10.61428     10.59499         0.014827     -0.101519      0.009134
Li	      4.21763      6.41501      2.18465         0.027097     -0.000655      0.053623
Li	      2.10574      2.15574      4.23403         0.023171      0.013895      0.009605
Li	      8.35833      6.44114      6.32526        -0.026200     -0.021656     -0.015468
Li	     10.33973      8.57704     10.74241        -0.023394     -0.012485      0.011495
Li	      4.22858      6.52932      6.24848         0.020686      0.037994     -0.041858
Sc	      2.19548      6.57955      8.34840         0.011771      0.036068     -0.025569
Sc	      6.30153      8.48909     10.59007        -0.029310     -0.016228      0.016183
Sc	      2.15648      4.20241      2.13023         0.008776     -0.002032     -0.029682
Ti	      6.33909      4.22818      6.36641         0.187158     -0.231229      0.055909
Mn	      4.20100      4.31496      4.27026         0.014450     -0.000533     -0.023884
Mn	      6.23703      6.41436      8.46938        -0.037979     -0.000160      0.020735
Cr	      6.23803      8.54882      6.34916         0.060044     -0.026128      0.022283
Ni	      2.14826      6.44541      4.27562        -0.058592     -0.034539      0.039123
Ni	      8.42436      8.52885      8.49972         0.007000     -0.009952     -0.068445
O	      2.12959      2.17157      2.09586         0.011411      0.014646      0.005669
O	      4.21570      4.32233      2.29569         0.014017      0.043776      0.056126
O	      4.23443      2.36421      4.23974        -0.028773      0.078573      0.004594
O	      6.18404      4.30542      4.30541        -0.020766      0.025956      0.035790
O	      6.28434      2.35635      6.29177        -0.011305      0.233596     -0.012013
O	      8.23347      4.33488      6.37893        -0.149929      0.008873     -0.027376
O	      2.24699      4.27666      4.29343         0.025887     -0.055263      0.011054
O	      4.17408      6.21563      4.24428         0.121037     -0.025541      0.002842
O	      4.22688      4.28846      6.25275        -0.010579      0.009034     -0.064744
O	      6.27835      6.42550      6.50446         0.008169      0.002746     -0.050725
O	      6.28612      4.22209      8.31335         0.086258     -0.011730     -0.093558
O	      8.23693      6.40724      8.50786        -0.006772     -0.061161     -0.064514
O	      2.06910      6.30275      6.34989         0.011346      0.004701      0.069958
O	      4.32253      8.56082      6.32984        -0.067545     -0.041300      0.003729
O	      4.26371      6.36190      8.50904        -0.010267      0.072085      0.020539
O	      6.35811      8.65100      8.40272        -0.117469      0.010770      0.028223
O	      6.29660      6.44587     10.44482        -0.103425     -0.012347      0.057715
O	      8.38307      8.52493     10.53434        -0.032238      0.086604      0.128759
