# total energy = -249.61722814 eV
 
CRYSTAL
PRIMVEC
-0.001657 6.302162 6.350064
6.390608 -0.015057 6.363793 
4.269916 4.220148 -0.019520  
PRIMCOORD
36 1
Li	      8.46893      2.14385      6.35180        -0.090466      0.013611     -0.021372
Li	      4.24517      2.08579      2.16922        -0.022025      0.004097      0.029991
Li	      6.38965      2.15151      8.51437         0.003434     -0.018202     -0.004121
Li	      6.37544      6.31498      4.26043         0.022612     -0.018373      0.020327
Li	      4.21144      4.32237      4.22953         0.059887      0.075697     -0.002449
Li	      6.37064      4.21368      6.35152        -0.023285     -0.051465     -0.023453
Li	      4.35361      6.29964      6.27042         0.039496      0.037345     -0.026459
Li	      4.33467      4.30166      8.43433         0.041635      0.033727      0.023239
Li	      6.29635      6.19721      8.42923        -0.004949     -0.048491      0.012117
Sc	      4.22605      4.18124      0.03608         0.009106     -0.009444      0.016084
Sc	      2.22490      0.17927      2.13295        -0.037814      0.063530     -0.027220
Sc	      6.35542      8.43228     10.51176        -0.028664     -0.021525     -0.022896
Ti	      6.50009      8.30028      6.38666         0.110344     -0.141755      0.023985
Mn	      2.13848      4.13593      2.14468         0.022468      0.015979      0.012951
Mn	      4.29471      8.35946      4.18653         0.017694     -0.016447     -0.003555
Mn	      8.61711      6.33703     10.52194        -0.014873      0.013132     -0.026892
Cr	      8.50281      6.27866      6.34818         0.012444      0.023468      0.033579
Co	      8.49467      4.19807      4.20424        -0.017506     -0.017594     -0.016323
O	      2.16287      2.19772      2.04525        -0.031289      0.021855      0.040156
O	      4.18060      4.18697      2.08152         0.024604      0.027374      0.003557
O	      4.27659      1.95237      4.32414        -0.038993     -0.028224      0.029192
O	      6.49867      4.19294      4.19319        -0.026841     -0.006072      0.009268
O	      6.26282      2.03809      6.25617         0.025283      0.007911      0.036939
O	      8.50672      4.24140      6.20903        -0.042681      0.028726     -0.058229
O	      2.21546      4.23891      4.41382        -0.016516     -0.052786      0.015357
O	      4.28823      6.44371      4.23340         0.069148     -0.069625      0.006517
O	      4.15212      4.10127      6.40896        -0.115495      0.005563     -0.024421
O	      6.46271      6.40988      6.38833         0.005649      0.153067     -0.012480
O	      6.56457      4.15505      8.63269        -0.048211      0.009963     -0.040852
O	      8.52069      6.08990      8.37726         0.037949      0.011661     -0.027045
O	      2.06230      6.23447      6.39585         0.042862     -0.047389      0.023861
O	      4.40477      8.41106      6.18085         0.024148     -0.007254      0.038506
O	      4.23321      6.32355      8.62298         0.015601     -0.020365      0.062846
O	      6.35462      8.50373      8.36456         0.011029     -0.027169     -0.059888
O	      6.26167      6.22300     10.59119        -0.010320     -0.019836     -0.017700
O	      8.45903      8.47953     10.56563        -0.025461      0.075309     -0.023116
