# total energy = -245.76987773 eV
 
CRYSTAL
PRIMVEC
0.011636 6.318344 6.445146 
6.486442 -0.006688 6.463870 
4.295068 4.195654 0.024596 
PRIMCOORD
36 1
Li	     10.69339      4.36875      6.59605         0.006311     -0.036548      0.077377
Li	      8.41247      2.20082      6.57803         0.021269     -0.016625      0.041070
Li	      6.28604      4.35428      2.26652        -0.060378     -0.082461     -0.031409
Li	      0.17646      2.03119      2.08142        -0.026076      0.054079      0.021558
Li	      2.16578      4.12118      2.14595        -0.000325      0.038727      0.093302
Li	      2.19907      2.01095      4.13155         0.007170     -0.024696     -0.004815
Li	      4.39236      4.19021      4.17023         0.019749      0.007437     -0.021645
Li	      6.60164      4.05827      6.43661        -0.039036      0.149477     -0.055732
Li	      8.69292      8.35319      8.67545         0.026022     -0.008721     -0.044326
Sc	      4.14889      2.27835      2.14293         0.144196      0.017178      0.023262
Sc	      4.30496      6.18892      6.55316         0.023707     -0.057775     -0.083816
Sc	      6.54006      6.23638      8.63330         0.159127     -0.014214     -0.176972
Ti	      2.27051      6.28661      4.24319         0.003385     -0.200385     -0.159900
Mn	      8.57546      4.19711      4.36467        -0.000422      0.121948      0.065064
Mn	      6.42465      2.18687      4.34112        -0.180557     -0.124026     -0.157961
Mn	      6.49728      8.38046      6.48327         0.004763     -0.070784      0.026314
Cr	     10.77526      8.41152     10.79151         0.334968     -0.203131      0.088999
Cu	      4.39247      2.10109      6.42893        -0.073872      0.076977      0.002288
O	      2.18421      2.12337      2.06581        -0.100512     -0.012563     -0.032642
O	      4.29286      4.22153      2.16448        -0.068059      0.114171     -0.064262
O	      4.27935      1.97079      4.18698         0.194420      1.012972     -0.279659
O	      6.61497      4.12104      4.31262        -1.019156     -0.237082      0.025399
O	      6.37938      2.13668      6.26135         0.123324      0.010760     -0.040323
O	      8.61463      4.33846      6.25338         0.019596     -0.234991      0.039315
O	      2.02677      4.36647      4.30095        -0.036680      0.095850      0.023092
O	      4.18165      6.36877      4.40103         0.004967      0.044646      0.023282
O	      4.18212      4.13447      6.47919        -0.094691      0.081370      0.022119
O	      6.45621      6.40105      6.53552        -0.091763     -0.006857      0.032327
O	      6.46667      4.22289      8.78178         0.025324      0.074402      0.045031
O	      8.60403      6.33717      8.86481        -0.024451      0.031915      0.287894
O	      2.24405      6.13587      6.33571         0.028488      0.032139      0.044434
O	      4.49540      8.32228      6.41176         0.002526      0.014999      0.021425
O	      4.41205      6.30285      8.65688         0.008438     -0.139475      0.044474
O	      6.45725      8.37064      8.77293        -0.004136      0.020719      0.093495
O	      6.51927      6.28655     10.76788         0.430512      0.021217     -0.000397
O	      8.72376      8.35297     10.88948         0.231853     -0.550649      0.012338
