# total energy = -103.17271067 eV
 
CRYSTAL
PRIMVEC
-0.001484 2.094668 2.105767 
6.217757 0.042112 -2.153400 
-2.045072 6.418411 -4.342581 
PRIMCOORD
16 1
Li	      0.02497      2.28396      1.88771        -0.010326      0.006623      0.024456
Li	      4.15003      2.16304     -2.17493        -0.000219     -0.000274      0.000641
Li	      2.05597      4.09440     -1.97846         0.009035     -0.005154     -0.023934
Li	      0.01796      6.39823     -2.21673         0.000124     -0.000210      0.000159
Ti	      4.26401      4.29062     -4.30991         0.283935     -0.038917      0.036579
Ti	      1.99114      6.45294     -4.38310        -0.283005      0.039851     -0.037035
Ni	      2.02839      2.18633     -0.09163         0.054744     -0.070978      0.056690
Ni	      0.05243      4.19180      0.00085        -0.053537      0.071490     -0.057684
O	      4.09791      4.41216     -2.33513        -0.036239      0.126053     -0.124399
O	      4.20076      2.00801      0.09090         0.037591     -0.124212      0.123790
O	      2.13943      6.54092     -2.37247         0.045001      0.083843     -0.069151
O	      2.09591      2.11449     -2.11559         0.122380      0.123735     -0.117250
O	      4.11406      6.29776     -4.21434        -0.043541     -0.085570      0.067404
O	      0.13536      6.42978     -4.36186         0.342935     -0.056364      0.062686
O	     -0.09787      4.27212     -2.17741        -0.345467      0.053794     -0.062777
O	     -0.01358      2.16908     -0.08105        -0.123411     -0.123711      0.119824
