# total energy = -250.08549349 eV
 
CRYSTAL
PRIMVEC
0.025455 6.591781 6.302758 
6.525159 0.048486 6.280730 
4.354488 4.383874 0.027718 
PRIMCOORD
36 1
Li	      6.46730      0.17970      6.23906        -0.061138      0.052524     -0.034824
Li	      8.62761      2.27378      6.22147        -0.014600      0.053215     -0.037723
Li	      2.30419      6.40543      8.24543        -0.041153     -0.003900      0.009971
Li	      4.46478      6.50050     10.43297        -0.001873      0.037586      0.006294
Li	      6.64436      8.74507     10.47853        -0.009237     -0.043890      0.017762
Li	      8.76930      6.53836      6.42547         0.002859     -0.057051     -0.023419
Li	      2.28766      4.48009      6.45254         0.047904     -0.003239     -0.018927
Li	      8.54766      8.99281      8.42582         0.013275      0.036999      0.042978
Li	      6.50939      6.73594      8.42847         0.023136      0.040160      0.028321
Sc	      4.52050      8.74581      8.28766         0.088148      0.052158      0.027987
Sc	      4.41505      4.35829      4.23507         0.017082     -0.054504     -0.034843
Sc	      8.57745      6.73499     10.52962        -0.054960      0.056445     -0.013015
Ti	      6.62801      6.51626      4.27355         0.192941     -0.064976     -0.026011
Mn	      6.53856      2.17410      8.26633         0.008238     -0.062333      0.015679
Mn	      8.69525      4.44844      8.36923         0.051516     -0.052866     -0.008308
Mn	     10.77250      8.93288     10.50702         0.001157     -0.014309      0.066585
Cr	      4.34791      6.59333      6.33796         0.017701      0.028461     -0.071113
Fe	      6.54844      4.35486      6.40848        -0.023498      0.106172     -0.065417
O	      2.20023      2.37355      2.25709        -0.003251      0.033030     -0.042432
O	      4.39023      4.33398      2.14536         0.051851     -0.055927     -0.043616
O	      4.16264      2.28056      4.18677        -0.128191      0.057561      0.036944
O	      6.49942      4.61762      4.27293         0.008065      0.085289     -0.062620
O	      6.50080      2.42559      6.20857        -0.035554     -0.104354     -0.043013
O	      8.53539      4.45685      6.45390         0.065184     -0.027761     -0.002402
O	      2.19179      4.31370      4.12585        -0.009359      0.052387      0.107208
O	      4.44738      6.51125      4.26082        -0.004436     -0.016053     -0.001784
O	      4.48630      4.54649      6.29762        -0.075998     -0.016182      0.049036
O	      6.43848      6.56229      6.17335        -0.024019      0.035891      0.086134
O	      6.49124      4.40262      8.48847        -0.044422      0.003067      0.078545
O	      8.73660      6.38428      8.45529        -0.002266     -0.029267     -0.027015
O	      2.36509      6.54348      6.24446         0.002857     -0.049600      0.080432
O	      4.35572      8.64295      6.18984         0.008614      0.006592     -0.057890
O	      4.35181      6.70183      8.30638        -0.000143      0.028228      0.080239
O	      6.48393      8.79440      8.45042        -0.078658      0.012225     -0.041114
O	      6.59140      6.60505     10.56610         0.029959     -0.040436     -0.023969
O	      8.82115      8.77265     10.48488        -0.017731     -0.081341     -0.054660
