# total energy = -252.99888713 eV
 
CRYSTAL
PRIMVEC
0.068870 6.508837 6.459326 
6.236930 0.041813 6.486579 
4.187386 4.386589 -0.001098 
PRIMCOORD
36 1
Li	      6.30410      6.54347     12.89679         0.003417      0.037026     -0.033273
Li	      2.11398      2.21678      0.04424         0.010136     -0.006640      0.007253
Li	      6.33573     10.81987      8.70669        -0.002946     -0.010711      0.029950
Li	      4.26914      6.56442     10.75033         0.073452     -0.023408     -0.020676
Li	      6.33011      8.70955     10.69094        -0.005940      0.010765      0.035653
Li	      2.19825      4.33206      2.12342        -0.037340      0.020379     -0.002265
Li	      2.14416      2.07580      4.25061        -0.036739     -0.039110      0.003844
Li	      6.29299      8.83099      6.57537        -0.004269      0.086743     -0.006255
Li	      6.31843      6.65333      8.71021        -0.007748     -0.009242      0.041725
Sc	      0.15252      2.04546      2.10896         0.014982     -0.009923     -0.047744
Sc	      8.32767      6.49892      6.42579        -0.022006     -0.006291      0.029621
Sc	      6.32561      4.34801      6.41646        -0.003682     -0.044579     -0.042130
Ti	      4.16451      6.68873      6.64675        -0.217687      0.168894      0.158936
Mn	      6.32885      4.44348     10.79040         0.008125     -0.005982     -0.015222
Mn	      4.15793      4.37240      4.30085        -0.021952      0.002818     -0.004465
Mn	      8.31163      6.59340     10.80332        -0.026971     -0.018393      0.010891
Mn	      8.27682      8.71651      8.65362         0.050673     -0.025256      0.006033
Cr	      4.17709      2.27621      2.20612         0.001140      0.022975      0.007774
O	      2.16026      2.25552      2.19870        -0.009452     -0.017843     -0.058911
O	      4.22061      4.31961      2.15801         0.007433     -0.002489     -0.012898
O	      4.14648      2.32604      4.26694        -0.030322      0.057533     -0.043803
O	      6.09232      4.37591      4.37915         0.004007      0.037635      0.007775
O	      6.23934      2.24992      6.53831        -0.018037      0.004548      0.027436
O	      8.32937      4.48715      6.36906        -0.014419      0.015241     -0.019954
O	      2.19804      4.54471      4.31887         0.036357      0.018561      0.049388
O	      4.11818      6.51084      4.36117        -0.029778     -0.098851     -0.011010
O	      4.16225      4.43292      6.60989         0.026010      0.022768      0.028919
O	      6.19289      6.47238      6.42444        -0.031796     -0.041084      0.031941
O	      6.10782      4.25345      8.60009        -0.061747     -0.056716     -0.046141
O	      8.39797      6.51696      8.51124         0.067456      0.064253     -0.033520
O	      2.32201      6.57638      6.47717         0.313298      0.009707      0.020353
O	      4.25884      8.59367      6.56366        -0.002905     -0.197450      0.094978
O	      4.24410      6.68366      8.55145        -0.033204      0.065138     -0.229541
O	      6.33290      8.73952      8.62100        -0.010692      0.013703      0.036197
O	      6.42143      6.51519     10.81082         0.021676      0.026350     -0.014830
O	      8.37823      8.60267     10.60555        -0.008529     -0.071070      0.013974
