# total energy = -243.62037999 eV
 
CRYSTAL
PRIMVEC
-0.005786 6.426154 6.502810 
6.278444 0.016740 6.477552 
4.192123 4.274744 0.004891 
PRIMCOORD
36 1
Li	      4.24626     10.59698      6.51465         0.026235     -0.031580      0.021412
Li	      4.24975      8.64989      8.58486         0.013583      0.010339     -0.046697
Li	      6.26931      8.58113     10.68871         0.007503      0.037685     -0.034859
Li	      4.20074      6.40737      2.19762         0.010349     -0.029397      0.028212
Li	      6.28415      6.40839      4.33022        -0.014227      0.008894      0.052093
Li	      6.20137      4.34531      6.60218         0.042949      0.027337      0.035682
Li	      2.17459      6.34133      4.45714         0.030228     -0.060935      0.077391
Li	      2.08085      4.34614      6.53966         0.002296     -0.018139     -0.023020
Li	      8.35938      8.57115      8.67029        -0.036535     -0.007869      0.006052
Sc	      2.05128      2.07289      0.05289         0.073628     -0.057042     -0.048896
Sc	      2.17997      4.25618      2.22080         0.010009     -0.040513      0.189769
Sc	      4.19300      8.52081      4.34587         0.143297     -0.065806     -0.014506
Sc	      6.27778      6.59175      8.62837        -0.052926      0.075961      0.069595
Mn	      4.22593      6.37991      6.52090        -0.077946     -0.007361     -0.143701
V	      8.26928      4.31424      4.37280        -0.029041      0.054717     -0.098762
V	      4.34684      2.20213      6.44591        -0.028069      0.186890     -0.178215
Co	      4.19544      4.30783      4.30088         0.041562     -0.209920      0.160330
Ni	      6.26398     10.63315      8.62871        -0.047034      0.058003      0.028392
O	      2.06850      2.19195      2.08083        -0.011975      0.034760     -0.040249
O	      4.23387      4.29516      2.24158        -0.118039      0.050483      0.498066
O	      4.13969      2.05921      4.50350         0.038838     -0.105566      0.012623
O	      6.46700      4.28772      4.21647        -0.228353      0.022197      0.091258
O	      6.13738      2.09236      6.47625         0.082236      0.009393      0.042431
O	      8.31682      4.34170      6.38120        -0.000773      0.075133      0.054990
O	      2.05897      4.35540      4.25801         0.214569     -0.069380     -0.027817
O	      4.19857      6.40201      4.54783         0.035342      0.129878     -0.021097
O	      4.21773      4.10803      6.37384        -0.097721     -0.007891     -0.494473
O	      6.22315      6.38704      6.55164        -0.001622      0.024064     -0.009174
O	      6.33506      4.35555      8.74224        -0.046620     -0.042913     -0.040361
O	      8.36305      6.40660      8.45439         0.008825      0.044570     -0.092346
O	      2.22824      6.43842      6.51823        -0.064867      0.007039     -0.031976
O	      4.10740      8.59508      6.44202         0.005265      0.078875      0.013054
O	      4.17286      6.42425      8.58769         0.089587      0.006357      0.034408
O	      6.28329      8.58073      8.66850         0.025638     -0.155490     -0.045844
O	      6.03036      6.42247     10.76068        -0.040766     -0.012909     -0.002084
O	      8.35344      8.71004     10.90964        -0.005422     -0.019866     -0.021682
