# total energy = -246.43121168 eV
 
CRYSTAL
PRIMVEC
0.032303 6.367776 6.318959 
6.467289 -0.001312 6.352088 
4.309305 4.265245 0.001320 
PRIMCOORD
36 1
Li	      0.12238      0.05396      0.14419        -0.019218     -0.022861     -0.025080
Li	      8.61758      8.41498     12.61740        -0.007418      0.020795     -0.003495
Li	      4.26021      2.22078      2.00686        -0.044768     -0.026977     -0.013379
Li	      6.58625      8.38551     10.66558         0.037143      0.004447      0.008366
Li	      2.25211      4.23651      2.09719        -0.015115      0.016337      0.006528
Li	      4.43433      2.09610      6.33990         0.037400     -0.004023      0.041685
Li	      8.58368      6.43994     10.64921         0.013022      0.057648     -0.063175
Li	      6.38368      8.59845      6.32574        -0.037485     -0.016092      0.020613
Li	      8.62383      8.49235      8.49641        -0.045837     -0.047379     -0.024900
Sc	      4.24135      4.14810      4.17048         0.046095      0.007487     -0.023000
Sc	      6.48575      4.13407      6.42196         0.031448     -0.134808     -0.095462
Sc	     10.78491      8.53012     10.57881        -0.087455     -0.020322      0.145370
Sc	      4.20200      6.40505      6.43437        -0.161342      0.012656      0.029285
Mn	      2.18622      2.12423      4.23908        -0.044267     -0.047039     -0.073188
V	      4.39960      6.38620     10.56616         0.030706     -0.011029      0.109895
V	      6.65800      6.55871      8.40627         0.070077      0.233228     -0.008523
Co	      6.38600      4.24384      2.07354        -0.021607      0.043407     -0.023452
Co	     10.71531      6.33454      8.43210        -0.086707     -0.159302     -0.016498
O	      2.04900      2.07600      2.33372         0.020877      0.036933     -0.030953
O	      4.30726      4.22512      2.14473        -0.025876      0.079330      0.065541
O	      4.33165      2.06732      4.21150         0.086051     -0.007390      0.013605
O	      6.55504      4.31200      4.21810         0.040816      0.139830      0.061326
O	      6.50650      2.13561      6.42204         0.001267      0.169211     -0.042072
O	      8.60149      4.30530      6.06363         0.027250     -0.044181     -0.108513
O	      2.16979      4.12176      4.23226        -0.024117     -0.094151     -0.022842
O	      4.24478      6.36420      4.24388        -0.022842      0.000624      0.015826
O	      4.43252      4.30059      6.25186         0.068118     -0.018115      0.044112
O	      6.44401      6.34271      6.31444         0.016771      0.003793      0.037355
O	      6.53229      4.44222      8.43414        -0.019359      0.020528      0.018915
O	      8.52940      6.38548      8.44986         0.027863      0.045067     -0.005858
O	      2.19333      6.34634      6.38899         0.089693     -0.026634     -0.076181
O	      4.29787      8.44536      6.24947         0.030986     -0.014343     -0.027852
O	      4.42004      6.40692      8.53968         0.006739     -0.037685      0.051772
O	      6.50344      8.34256      8.38934         0.056816     -0.147485      0.013847
O	      6.43242      6.39110     10.40230        -0.083843     -0.067829     -0.000037
O	      8.70809      8.68806     10.50018         0.008119      0.056326      0.000419
