# total energy = -249.87951348 eV
 
CRYSTAL
PRIMVEC
0.087757 6.444623 6.224786 
6.576951 0.096397 6.215823 
4.429509 4.334902 0.019540 
PRIMCOORD
36 1
Li	      4.50480      8.52504      8.35641        -0.005256      0.020889     -0.056471
Li	      4.61689      6.52573     10.25327         0.021206      0.010656     -0.009273
Li	      8.67104      4.42825      8.34001        -0.020773     -0.000971      0.002143
Li	      2.24988      2.21501      4.19531         0.020168      0.006762     -0.007578
Li	      6.53835      4.52378      6.25357        -0.017127      0.008454     -0.015612
Li	      6.60254      4.52518     10.28097        -0.019384      0.030013      0.017316
Li	      4.61209      6.45575      6.25056        -0.018823      0.042833     -0.020989
Li	      4.62665      4.51393      8.29456        -0.003977     -0.006959     -0.039777
Li	      6.48154      6.35704      8.28616         0.008972      0.009172     -0.017353
Sc	      4.37761      4.27746      0.08692         0.060203     -0.060717     -0.032658
Sc	      8.83053      2.36746      6.19843         0.045546     -0.025247     -0.128565
Sc	      2.44428      6.48497      8.37967         0.029796     -0.052168     -0.092455
Sc	      6.60652      2.39589      8.39669        -0.050458      0.022024      0.015219
Mn	      6.70500      8.58550      6.27518         0.052901      0.047653      0.132099
V	      6.63565      8.63329     10.28442         0.100817     -0.052732      0.081018
V	      8.82454      6.50852     10.28190        -0.030033      0.062598      0.079259
Cr	      8.81001      6.56181      6.24772        -0.020005      0.082148      0.101312
Co	      4.45602      4.32876      4.17287         0.035605      0.063753      0.137751
O	      2.13501      2.12947      2.02864         0.023550      0.035258      0.038412
O	      4.49418      4.38726      2.14971        -0.004642     -0.000166      0.063102
O	      4.53130      2.34575      4.22724        -0.077759     -0.012855     -0.089249
O	      6.43789      4.27522      4.17972        -0.040494     -0.018295      0.011606
O	      6.55679      2.17722      6.17834        -0.040018     -0.006274      0.097747
O	      8.87644      4.44160      6.17177        -0.024707      0.019506      0.009037
O	      2.45391      4.39745      4.28376         0.023475     -0.037264     -0.093470
O	      4.36202      6.30659      4.21467         0.044450     -0.099817     -0.011097
O	      4.46231      4.22849      6.11745        -0.029984     -0.060368     -0.055552
O	      6.82400      6.66738      6.22350        -0.008361     -0.046603      0.008645
O	      6.64064      4.35565      8.34060         0.019617     -0.049532      0.004551
O	      8.92776      6.51833      8.29781         0.058302     -0.036916     -0.077984
O	      2.18558      6.41031      6.18289        -0.020972     -0.050035      0.044311
O	      4.37758      8.68677      6.15702        -0.015206      0.024061      0.015993
O	      4.40539      6.49682      8.31704         0.003589      0.040378      0.007296
O	      6.61380      8.72152      8.24781        -0.042538      0.017447     -0.132087
O	      6.72467      6.59031     10.36812        -0.058121      0.049829      0.002519
O	      8.69009      8.55216     10.38911         0.000440      0.023486      0.010833
