# total energy = -248.33369416 eV
 
CRYSTAL
PRIMVEC
0.025863 6.519231 6.379159 
6.236870 0.050342 6.354857 
4.193303 4.366509 -0.003029 
PRIMCOORD
36 1
Li	     10.38872      4.48439      6.41008        -0.016077      0.023186      0.033109
Li	      6.35273     10.86867      8.53102         0.065787      0.029228      0.016104
Li	      4.15927      0.11217      4.23832        -0.002452      0.006993      0.014100
Li	      6.28411      8.72474     10.57984         0.023352      0.007072     -0.001689
Li	      6.21378      2.23276      8.41767        -0.008582     -0.017459      0.019478
Li	      6.27346      4.37908      6.40847         0.007217     -0.025543     -0.025900
Li	     10.41067      8.77602     10.58095         0.019673      0.045671     -0.024296
Li	      4.18038      6.62195      6.34769         0.027847     -0.002499      0.006341
Li	      6.28943      6.55131      8.48289        -0.021664     -0.009783     -0.026300
Sc	      8.27367      2.23692      6.38663        -0.081779     -0.019688     -0.075359
Sc	      6.23930      6.46984      4.20379        -0.106904     -0.012889      0.043949
Sc	      4.25813      4.30802      4.18025         0.047468      0.103547     -0.042500
Sc	      6.15706      8.76233      6.48042         0.065395      0.033045     -0.051922
Mn	      8.25595      4.41645      8.44476        -0.117434      0.031697      0.102526
V	      8.24916      6.63547     10.58137         0.283799     -0.028658     -0.077117
V	      4.26316      4.53094      8.49618         0.174550     -0.263708      0.015192
Cr	      4.23672      2.17787      6.39924        -0.004215      0.003388      0.126241
Cu	      4.25725      8.65373      8.45999        -0.003116      0.042063     -0.063395
O	      2.01312      2.17603      2.11562         0.076656     -0.081584     -0.015915
O	      3.95472      4.36398      2.16879         0.200558     -0.051400     -0.044969
O	      4.16216      2.21328      4.39126         0.014815     -0.087468     -0.059244
O	      6.25577      4.47369      4.18124        -0.006274     -0.009211      0.079050
O	      6.22874      2.20718      6.33817         0.005761     -0.016975      0.007982
O	      8.32827      4.46927      6.43578        -0.007373      0.000841      0.060570
O	      2.09986      4.42346      4.22512        -0.076516     -0.049149     -0.113178
O	      4.10130      6.41031      4.28567         0.030748      0.006633     -0.006053
O	      4.18849      4.24179      6.46258        -0.032807      0.012236     -0.075226
O	      6.36155      6.67293      6.30186         0.023431      0.037519      0.023356
O	      6.28881      4.41534      8.50620        -0.133512      0.011121     -0.022203
O	      8.38949      6.71132      8.51445         0.014150      0.077890     -0.046319
O	      2.11661      6.55317      6.24166        -0.009450     -0.018025      0.036549
O	      4.16156      8.68830      6.32544        -0.006523     -0.001119      0.032617
O	      4.24990      6.29445      8.51746         0.013936      0.163845      0.030273
O	      6.45872      8.77197      8.48403        -0.207444      0.036020      0.044512
O	      6.50684      6.55504     10.57091        -0.252091      0.003908     -0.008784
O	      8.40707      8.59955     10.52505        -0.000928      0.019252      0.088421
