# total energy = -251.25811626 eV
 
CRYSTAL
PRIMVEC
-0.022629 6.361939 6.427977 
6.486279 -0.021529 6.427265 
4.293868 4.210792 0.015847 
PRIMCOORD
36 1
Li	      2.14686      2.08579      0.04747         0.002761     -0.012375      0.035308
Li	      4.20373      2.15252      2.22711        -0.054556     -0.012485      0.007216
Li	      0.09344      2.13488      2.24189         0.070574     -0.019749     -0.008825
Li	      2.10273      4.22556      2.36099        -0.001477      0.061871     -0.064838
Li	      2.16633      2.23433      4.10463         0.018266     -0.035262      0.018490
Li	      4.18740      4.17714      4.12675        -0.032194     -0.007010     -0.028353
Li	      0.05806      4.18047      4.15531         0.031040      0.009971     -0.026149
Li	      8.62758      6.35372     10.54767         0.009244      0.048168     -0.032128
Li	      8.65867      8.36822      8.68389         0.031536     -0.001590      0.002029
Sc	      4.27440      4.15417      0.10102        -0.085184      0.000974      0.071685
Sc	      4.29893      6.27708     10.63758         0.015061     -0.008639      0.012284
Sc	      4.35249      2.15057      6.46427         0.024732     -0.054646      0.024914
Sc	      2.15656      4.25238      6.23739         0.009990      0.018442     -0.054011
Mn	      6.37754      4.25731      2.22197         0.005899      0.085308      0.021609
V	      4.26863      6.37402      6.31560        -0.000032      0.037152     -0.053941
V	      6.48518      6.29857      8.59911        -0.012508     -0.030704      0.056614
Cr	      6.46832      8.44591     10.70570         0.006615     -0.003133      0.000139
Fe	      6.46211      4.18280      6.51311         0.044768     -0.030747     -0.063451
O	      2.12072      1.90245      2.19514         0.000823     -0.112724     -0.016981
O	      4.36149      4.22228      2.10038        -0.047879     -0.017404     -0.014486
O	      4.41908      2.05723      4.35379         0.017034     -0.005557      0.018599
O	      6.52040      4.11203      4.35598         0.006052     -0.020848     -0.090693
O	      6.43348      2.03397      6.34345        -0.021791     -0.057104     -0.015507
O	      8.70296      4.23379      6.37686         0.038145      0.027166     -0.007395
O	      2.15719      4.21962      4.30697        -0.010061      0.022628      0.081945
O	      4.29813      6.35524      4.57428        -0.013997      0.001789      0.011040
O	      4.26286      4.31007      6.44005        -0.059959      0.025546      0.001301
O	      6.38523      6.36453      6.49488        -0.017361      0.067429     -0.042795
O	      6.45658      4.32915      8.52596         0.007003      0.004455      0.125276
O	      8.46475      6.36409      8.52408        -0.009354      0.007406     -0.039025
O	      2.23302      6.33152      6.48756         0.021464      0.000025      0.043877
O	      4.33824      8.40035      6.43840         0.019338     -0.017781      0.002277
O	      4.36804      6.36705      8.46919         0.042799     -0.012584     -0.019558
O	      6.42956      8.50747      8.67165        -0.006945      0.019358     -0.005857
O	      6.42917      6.39751     10.70689        -0.006983      0.024882      0.031876
O	      8.47471      8.47282     10.71640        -0.042863     -0.002226      0.017513
