# total energy = -246.89064423 eV
 
CRYSTAL
PRIMVEC
0.052813 6.302549 6.469276 
6.364817 0.062548 6.459517 
4.294897 4.247042 -0.010108 
PRIMCOORD
36 1
Li	     10.60785      4.32752      6.44157         0.018718     -0.018236     -0.033633
Li	      8.64026     10.53943     10.79850        -0.012044     -0.001870     -0.014901
Li	     10.41541      6.37128      8.57694         0.038855     -0.019270      0.056423
Li	      8.58301      4.53096      8.49949         0.035614     -0.018120     -0.042580
Li	      8.56798      6.33666      6.73295        -0.033669     -0.029615      0.025425
Li	      8.58983      6.36936     10.57892         0.006688      0.027581     -0.099644
Li	      4.29719      6.31290      6.46710        -0.006249     -0.011312      0.006525
Li	      8.58434      8.32072      8.59741        -0.034382     -0.021136      0.053799
Li	      6.61851      6.35479      8.58831         0.050598      0.015345      0.021312
Sc	      2.21327      6.33633      8.51947         0.015900     -0.021671      0.016462
Sc	      4.32118      8.40263      8.50786         0.027743     -0.014592     -0.009673
Sc	      6.52708      8.31683     10.81353        -0.012277     -0.038948      0.009898
Sc	      6.43974      6.36886      4.33088        -0.001059      0.031237     -0.109268
Mn	      6.43543      4.27431      6.56759        -0.081309      0.026650     -0.076181
V	      4.25158      4.34138      4.28543         0.011774     -0.003435     -0.087521
V	      6.30649      4.34013     10.65720         0.017940     -0.000523      0.236411
Cr	      2.20144      4.21866      6.47970        -0.025441      0.020160      0.013493
Ni	      8.51094      2.20504      6.45333         0.028792     -0.072886      0.083566
O	      8.53761      6.41514      8.62594        -0.020560      0.016315      0.038354
O	      2.20240      2.10548      2.16325        -0.019786      0.005927      0.051981
O	      4.30913      4.22948      2.25980        -0.027993      0.029186     -0.037012
O	      4.30577      2.26707      4.18957         0.006642     -0.014165     -0.039454
O	      6.34435      4.25135      4.24336         0.076806     -0.003801     -0.020262
O	      6.44439      2.29491      6.39521        -0.178214      0.047599      0.019729
O	      8.33450      4.23287      6.48673        -0.049860      0.139989      0.044215
O	      2.10294      4.20810      4.47569         0.024681      0.014074      0.048790
O	      4.36916      6.38970      4.30403        -0.009038     -0.026773      0.003557
O	      4.29271      4.26370      6.28863         0.042431     -0.062560      0.023866
O	      6.43113      6.32212      6.40432         0.060311     -0.016333     -0.035849
O	      6.38954      4.27663      8.91141         0.028233      0.028773     -0.248612
O	      2.15800      6.23666      6.49931        -0.017930     -0.055906      0.050386
O	      4.40705      8.45673      6.35813         0.068709     -0.014197      0.081827
O	      4.23290      6.40110      8.61027         0.005769      0.009375     -0.025216
O	      6.43784      8.47239      8.55796         0.034563     -0.021203     -0.033418
O	      6.35026      6.29865     10.84019         0.016556      0.076952      0.053663
O	      8.65387      8.48939     10.85898        -0.087514     -0.002610     -0.026456
