# total energy = -240.39112804 eV
 
CRYSTAL
PRIMVEC
0.030380 6.511485 6.361364 
6.420802 0.057169 6.334994 
4.319549 4.362231 -0.000692 
PRIMCOORD
36 1
Li	      4.39247      8.59827      8.45306        -0.029150     -0.012839     -0.018641
Li	      4.28287      4.36024      4.51705        -0.031023      0.086281     -0.118005
Li	      4.18652      2.44656      6.35755         0.042636     -0.039716      0.089273
Li	      0.17300      4.38392      4.25605         0.085182     -0.046344      0.014941
Li	      8.51699      6.57537     10.59631         0.074347      0.041647     -0.080461
Li	      2.34527      4.36854      6.25288        -0.035752      0.102202      0.014080
Li	      4.35061      6.28625      6.35693        -0.073303      0.077433     -0.053612
Li	      4.35938      4.42729      8.36180         0.015725      0.003685      0.118041
Li	      6.34499      6.52843      8.42147        -0.024079     -0.013772      0.102713
Sc	      2.34199      8.66553      6.24594         0.115397     -0.028753      0.042516
Sc	      2.29258      6.50061      8.48189        -0.138678      0.001989     -0.029091
Sc	     10.63790      6.68120      8.49511         0.060425     -0.049586      0.099561
Sc	      8.56020      4.49744      8.43533         0.051077     -0.076548      0.102403
Mn	      6.50659      6.57230     12.62491         0.003365     -0.008994      0.130640
V	      6.38513      8.69373     10.52860        -0.177660     -0.029636     -0.068188
V	      6.49296      6.61834      4.38800        -0.264623      0.009635     -0.388571
Cu	      8.61734     10.89434     10.57456         0.001168     -0.005629     -0.045931
Ni	      6.31430      4.44156      6.33638         0.046922     -0.094454     -0.008576
O	      2.13073      2.16593      2.12376         0.006779     -0.063188     -0.000376
O	      4.31110      4.46555      1.88862        -0.000768      0.039056     -0.034612
O	      4.21591      2.07873      4.24680         0.176495      0.012530      0.040390
O	      6.27078      4.26370      4.23499        -0.193541      0.062233     -0.028117
O	      6.43615      2.12882      6.23431         0.020928     -0.019773     -0.026346
O	      8.45107      4.30601      6.30898         0.079809      0.015479      0.109070
O	      2.23961      4.15468      4.17453         0.033247     -0.066633      0.043969
O	      4.60412      6.55119      4.15839        -0.048358      0.068276      0.063749
O	      4.33920      4.36793      6.42122        -0.142095     -0.027964     -0.012019
O	      6.50310      6.53728      6.17742         0.008674     -0.047945      0.326993
O	      6.49885      4.36007      8.42917         0.000527      0.076690      0.089523
O	      8.65092      6.48894      8.55354        -0.018837      0.009368     -0.047638
O	      2.27863      6.60708      6.40383        -0.000381      0.005334      0.012079
O	      4.34073      8.94959      6.27618        -0.073012      0.008695     -0.026521
O	      4.28165      6.54477      8.59447         0.078411     -0.020949     -0.224083
O	      6.36551      8.76599      8.72730         0.035033     -0.018547     -0.007662
O	      6.52095      6.72797     10.70576         0.200968      0.033220     -0.087196
O	      8.36566      8.80009     10.59903         0.114145      0.017517     -0.094297
