# total energy = -247.57366655 eV
 
CRYSTAL
PRIMVEC
0.021798 6.253765 6.401046 
6.469614 -0.020788 6.443931 
4.298212 4.182648 0.001413 
PRIMCOORD
36 1
Li	     10.68352      4.19319      6.45287        -0.024144     -0.006276      0.013627
Li	      6.42341      4.22760      2.19140        -0.020214      0.004159     -0.008510
Li	      2.15037      4.17933      2.41708         0.003149     -0.007450      0.011428
Li	      6.41303      6.22638      4.22576        -0.017195      0.006828     -0.006456
Li	      4.17679      4.22940      4.25394        -0.067114     -0.044097     -0.006268
Li	      6.48530      4.21718      6.33145        -0.004413     -0.027677     -0.047554
Li	      0.05426      4.19521      4.27751        -0.013929     -0.010038      0.018461
Li	      2.21231      6.15013      4.25664        -0.018444      0.040717      0.015968
Li	      8.61058      8.35643      8.59156        -0.001720     -0.012301     -0.006059
Sc	      4.18980      2.15295      2.21233         0.056015      0.005405      0.033637
Sc	      6.55873      2.16719      4.30977        -0.031276     -0.045518     -0.091624
Sc	      4.32718      6.22418      2.20551        -0.050378     -0.040722      0.046043
Sc	      2.15561      4.19764      6.28838         0.029559      0.037967     -0.048335
Mn	      8.66621      8.37284     12.81851        -0.024976     -0.015336      0.032283
V	      8.60472      6.22884      6.42987        -0.008563      0.040642     -0.072517
V	      6.46396      6.07360      8.62424         0.055154      0.241767      0.052163
Fe	      4.31653      6.17156      6.22039         0.101632     -0.009944      0.156559
Co	      4.34737      6.24962     10.66863        -0.024577     -0.004060     -0.006687
O	      2.11798      2.12441      2.13972        -0.060143      0.013634      0.004735
O	      4.32171      4.17931      2.15870        -0.026665      0.080496     -0.001638
O	      4.36483      2.01211      4.32684        -0.020248     -0.064747     -0.073278
O	      6.68152      4.17445      4.23358         0.038699      0.034620      0.020729
O	      6.40097      2.07477      6.46082        -0.089319      0.021528     -0.005408
O	      8.62753      4.26346      6.20421         0.180502      0.007246     -0.051988
O	      2.13993      4.16654      4.34624        -0.018190     -0.028935      0.072061
O	      4.31603      6.25366      4.29091        -0.009353     -0.000348     -0.188536
O	      4.29586      4.14468      6.38691         0.027468     -0.018432      0.053758
O	      6.43113      6.23399      6.57061         0.097056     -0.014755      0.007023
O	      6.48588      4.27784      8.58008         0.012704     -0.238649      0.005229
O	      8.54410      6.23481      8.45580        -0.054693     -0.022170      0.102371
O	      2.35890      6.22740      6.44346        -0.083192     -0.021662      0.018339
O	      4.36595      8.22893      6.50723         0.048639      0.027692     -0.019445
O	      4.47003      6.23685      8.65405         0.021957     -0.015187     -0.023907
O	      6.40794      8.14297      8.59202         0.010045      0.075328      0.003036
O	      6.37733      6.25701     10.58438        -0.026821     -0.032049     -0.021005
O	      8.62186      8.47580     10.68078         0.012988      0.042328      0.011767
