# total energy = -244.09160803 eV
 
CRYSTAL
PRIMVEC
-0.003962 6.485643 6.293967 
6.357802 0.000117 6.289754 
4.236872 4.319379 0.001819 
PRIMCOORD
36 1
Li	      6.29361      4.26708      2.16428        -0.029357     -0.034641      0.014810
Li	      4.31147      2.16779      2.17523        -0.008479      0.030175      0.013653
Li	      4.30929      6.54864     10.43180        -0.018450      0.053473     -0.040427
Li	      6.33503      8.55347     10.38033         0.022788     -0.063413      0.019091
Li	      4.24718      6.46842      2.13419         0.011209     -0.012673      0.012096
Li	      4.25094      4.31353      4.07393         0.007544     -0.011679     -0.030660
Li	      6.36007      4.27067      6.33833         0.003325     -0.044017     -0.026760
Li	      6.35850      4.37209     10.43932         0.005989      0.019819      0.001124
Li	      6.30117      6.50642      8.57921        -0.020785      0.013021     -0.018383
Sc	      6.33981      0.04009      6.25217         0.030066     -0.029505      0.028802
Sc	      8.41973      4.34122      8.45923        -0.014435      0.031266     -0.021932
Sc	      6.32182      8.63079      6.35219         0.015757      0.004062      0.053595
Sc	      4.31743      4.37756      8.51040         0.006694      0.045988      0.013444
Mn	      4.26775      2.19743      6.25977        -0.023528      0.016074     -0.044634
V	      8.43776      2.17339      6.27353         0.008599     -0.013157      0.018408
V	      6.33214      6.28368      4.13883        -0.101565     -0.177603     -0.074157
Fe	      4.24493      6.47380      6.32798         0.033546      0.000344     -0.013882
Ni	      8.47340      6.48931     10.43259         0.040898     -0.065224     -0.039538
O	      2.08956      2.21154      2.12116         0.013504      0.014527     -0.029761
O	      4.16035      4.31612      2.02919         0.004413     -0.000888      0.011019
O	      4.07123      2.18028      4.34661         0.094066      0.017803      0.016842
O	      6.36095      4.54338      4.14908         0.007661      0.101701      0.046098
O	      6.42637      2.13254      6.24041        -0.040997      0.058602      0.011728
O	      8.48783      4.32779      6.29369        -0.031359      0.062694     -0.041886
O	      2.11360      4.27037      4.21417         0.000170      0.024177     -0.011488
O	      4.32897      6.45670      4.30899         0.006012      0.015080     -0.035748
O	      4.19690      4.32893      6.33461        -0.004209     -0.076532     -0.029827
O	      6.28801      6.54359      6.14549         0.086506     -0.037116     -0.011434
O	      6.35407      4.31937      8.38825         0.013849     -0.004308     -0.029115
O	      8.49049      6.50164      8.27136         0.011997     -0.013275     -0.233419
O	      2.16715      6.49193      6.22649        -0.035848      0.056673      0.229085
O	      4.16128      8.60562      6.32416         0.019682      0.009351     -0.022181
O	      4.26666      6.42989      8.25370        -0.013905      0.002149      0.186763
O	      6.41155      8.66313      8.35346        -0.017170     -0.025148      0.027774
O	      6.44039      6.46641     10.51367        -0.095305      0.038556      0.056740
O	      8.49654      8.58279     10.58651         0.011119     -0.006356     -0.005841
