# total energy = -241.01735703 eV
 
CRYSTAL
PRIMVEC
0.056974 6.411212 6.449957 
6.428534 0.000408 6.506581 
4.251071 4.277321 0.034830 
PRIMCOORD
36 1
Li	      6.41533      0.00542      6.49776        -0.063845      0.001484      0.053660
Li	      8.44604      4.37033      8.67955         0.066192     -0.032814     -0.166311
Li	      6.46416      6.41612      4.49701         0.024017      0.046674      0.024806
Li	      4.27206      4.31024      4.46564         0.008849      0.018380     -0.007396
Li	      4.17437      2.27194      6.46608        -0.005768     -0.042185     -0.038199
Li	      6.45029      4.25173     10.64360        -0.082083     -0.119421     -0.084751
Li	      6.55356      8.41390      6.52601        -0.034001     -0.023515      0.097892
Li	      4.34766      4.24400      8.57474        -0.020613      0.087729      0.055684
Li	      6.56075      6.30905      8.61240        -0.017774     -0.041709     -0.038474
Sc	      2.22872      8.55178      6.43523         0.082408      0.372115     -0.051660
Sc	      4.28393      2.22337      2.14857        -0.065887     -0.179827     -0.094600
Sc	      6.39795      2.12622      4.40546         0.152054      0.071809      0.026523
Sc	      6.33259      4.39301      6.61232         0.232587     -0.006941      0.214148
Mn	      6.37792      4.28705      2.24402         0.176419      0.053711     -0.163709
V	      4.37954      6.40252     10.78351        -0.266958     -0.160997     -0.150736
V	      2.18680      6.12836      4.25334         0.193607      0.228705      0.116559
Ni	     10.68111      6.43557      8.69868         0.084718     -0.069611     -0.085716
Ni	      4.34037      6.38276      6.44127        -0.054924      0.054861      0.169204
O	      2.13742      2.00343      2.12702         0.007078     -0.043650      0.068585
O	      4.41480      4.29831      2.18144         0.012707     -0.018311      0.030256
O	      4.31964      2.01063      4.28338         0.219092     -0.015976      0.117008
O	      6.48280      4.24540      4.41857         0.568105     -0.016691      0.008408
O	      6.46564      2.16172      6.49606        -0.054930      0.026455     -0.146501
O	      8.57143      4.22018      6.36732        -0.111907     -0.042209      0.942380
O	      2.15474      4.41058      4.27900        -0.040498     -0.259326     -0.010866
O	      4.02550      6.40837      4.31583        -0.053130     -0.037195     -0.018978
O	      4.31346      4.32971      6.48177        -0.009960     -0.143489     -0.033165
O	      6.38808      6.41776      6.53213         0.144047      0.005166     -0.040622
O	      6.49299      4.20307      8.62163        -0.077035      0.085123      0.051130
O	      8.60616      6.41687      8.94992        -0.140653     -0.049293      0.074139
O	      2.18565      6.44489      6.18735        -0.087460     -0.066024     -0.106171
O	      4.26267      8.46906      6.56558         0.076208      0.069543     -0.038412
O	      4.18040      6.45672      8.73994        -0.197887      0.123579     -0.685638
O	      6.40997      8.73487      8.72668         0.010435      0.018401      0.052976
O	      6.62774      6.43990     10.77958        -0.579832      0.100637     -0.051627
O	      8.57221      8.65667     10.84547        -0.093376      0.004810     -0.089824
