# total energy = -249.64873334 eV
 
CRYSTAL
PRIMVEC
0.018914 6.372414 6.524829 
6.281184 0.009059 6.534636 
4.189679 4.257349 0.003734 
PRIMCOORD
36 1
Li	      6.34346     10.55887      8.81505        -0.010560      0.055454      0.030936
Li	      8.35053      4.27605      4.38214         0.005421     -0.006354      0.062089
Li	      8.34287      4.33638      8.81140        -0.016754      0.028085     -0.022275
Li	      2.13554      2.28802      4.40310        -0.004067      0.046794     -0.033679
Li	      4.13722      4.14995      4.42494         0.014503     -0.016168     -0.004761
Li	      8.29452      6.45626      6.55571         0.031824     -0.024293      0.000378
Li	      8.35729      6.31003     10.81091         0.027843      0.019983      0.013225
Li	      2.17876      4.17114      6.45223        -0.035982      0.031882     -0.068574
Li	      6.43472      6.42281      8.70623        -0.043748     -0.030705     -0.014336
Sc	      0.03537      6.37613      6.52871         0.027181      0.007204      0.004425
Sc	      4.22261      2.10349      2.29091        -0.163450     -0.111807      0.024400
Sc	      4.13145      6.32119      2.34119         0.143880     -0.028840      0.089344
Sc	      6.30788      4.28983      6.50055        -0.067823     -0.032263      0.014300
Mn	      6.32636      8.48775     10.82906         0.007003     -0.054572      0.076519
Mn	      6.34196      4.33361     10.80616        -0.202490     -0.026343     -0.026806
V	      2.12896      2.13747      0.04443        -0.009122     -0.063754     -0.064276
V	      4.19889      6.35021      6.50159        -0.046875     -0.022402     -0.061937
Co	      8.33060      8.49701      8.65156        -0.101524      0.116937     -0.011752
O	      2.10405      2.09545      2.05153        -0.019598      0.016208      0.060905
O	      4.19616      4.24114      2.09821         0.016284     -0.011744      0.020937
O	      4.25637      2.09262      4.30414        -0.073635     -0.002473      0.149454
O	      6.31143      4.01957      4.43577        -0.016986     -0.018952     -0.030084
O	      6.32186      2.11432      6.61258        -0.027874     -0.039242     -0.037937
O	      8.39254      4.16987      6.56313         0.091862      0.051100     -0.048461
O	      1.90652      4.28385      4.29576         0.161733      0.008187      0.123924
O	      4.18792      6.48709      4.43968         0.003677      0.022375     -0.129495
O	      4.18009      4.40915      6.45119         0.027859     -0.027047      0.014661
O	      6.10143      6.33816      6.43628        -0.020736      0.090854     -0.000228
O	      6.23890      4.22446      8.66480         0.045687      0.013393     -0.046472
O	      8.42536      6.46608      8.67496        -0.020916     -0.142826      0.001285
O	      2.22025      6.49054      6.49718         0.054264     -0.077595     -0.044305
O	      4.22629      8.47444      6.56194         0.060474      0.111849     -0.073171
O	      4.17858      6.36413      8.44325         0.031583      0.088925      0.184418
O	      6.29877      8.48536      8.73030         0.113194      0.014522     -0.060239
O	      6.30756      6.45347     10.96503        -0.003268      0.035994     -0.007854
O	      8.45782      8.55154     11.05789         0.021138     -0.022367     -0.084559
