# total energy = -247.31629042 eV
 
CRYSTAL
PRIMVEC
0.011879 6.335786 6.337703 
6.513853 0.008155 6.341523 
4.356390 4.239841 -0.008212 
PRIMCOORD
36 1
Li	      6.51354      6.37122     12.54063         0.028587      0.026839      0.027233
Li	      6.54116     10.55534      8.43590        -0.038222     -0.020240     -0.019721
Li	      4.42625      0.03867      4.32416         0.049354      0.041414      0.019603
Li	      6.56375      6.33743      4.46285         0.017992     -0.001339     -0.127932
Li	      8.55654      6.33776      6.20006        -0.050593     -0.051335      0.025407
Li	      6.58102      4.29473      6.22638         0.022307     -0.057906     -0.002309
Li	      2.17190      6.34343      4.30137         0.004929     -0.006895      0.051107
Li	      6.57591      8.35846      6.26895         0.019613      0.026755     -0.026930
Li	      4.44078      6.35504      6.22520        -0.001431     -0.019203      0.019768
Sc	      4.37461      8.44416      8.45172         0.055961     -0.020138      0.039250
Sc	      4.36725      6.31178      2.09086         0.016726      0.015309     -0.004115
Sc	      4.24838      4.32221      8.38144        -0.072755     -0.002770     -0.035905
Sc	      6.55638      6.32801      8.32411        -0.067199      0.074018     -0.057073
Mn	      2.22050      4.22526      2.07469         0.037685      0.013406      0.021689
Mn	      0.09067      4.27754      4.34129         0.019567     -0.009843     -0.003162
V	      2.16253      8.35100      6.26559        -0.023639     -0.221804     -0.012708
V	      4.44242      4.24778      4.35245         0.011694     -0.057368      0.046024
Cu	      6.44322      2.04505      4.30872        -0.033407      0.128820     -0.045607
O	      2.17970      2.17719      2.03283         0.001455      0.177970     -0.041436
O	      4.36969      4.23426      2.22968        -0.053796      0.002756      0.012915
O	      4.28965      2.19959      4.21648        -0.083275      0.072876     -0.053051
O	      6.25562      4.12201      4.22847        -0.152443      0.064440      0.041882
O	      6.68911      2.11755      6.40672         0.069155      0.010118      0.087657
O	      8.69062      4.09567      6.50842         0.042858     -0.012128      0.025331
O	      2.32465      4.25139      4.04858         0.018523     -0.014264     -0.060795
O	      4.38781      6.24815      4.20198         0.038532      0.002831     -0.088347
O	      4.27329      4.26915      6.28166         0.019193     -0.074587      0.026777
O	      6.53298      6.31987      6.36483        -0.016766     -0.005581      0.166156
O	      6.42878      4.21246      8.51294        -0.012452     -0.029415      0.042218
O	      8.72480      6.34932      8.39685         0.009077     -0.104523      0.009089
O	      2.19750      6.57584      6.35507        -0.010490      0.276665     -0.004526
O	      4.23274      8.49678      6.37521        -0.053040      0.038365     -0.029901
O	      4.41340      6.35229      8.49249         0.005465      0.020572     -0.011264
O	      6.52736      8.45030      8.33458         0.003986     -0.051592     -0.022232
O	      6.55349      6.40547     10.53285         0.005706     -0.223671      0.010629
O	      8.69256      8.52530     10.63277         0.171144     -0.008552     -0.025722
