# total energy = -250.69207418 eV
 
CRYSTAL
PRIMVEC
0.031795 6.456979 6.473545 
6.435491 0.081801 6.422531 
4.325346 4.305935 0.019913 
PRIMCOORD
36 1
Li	      6.35073      0.20891      6.35707        -0.047604      0.048075      0.026816
Li	      8.50812      2.26942      6.35261        -0.052577      0.006007     -0.014857
Li	      8.71870     10.73113     10.77314         0.018510     -0.002540     -0.078827
Li	      6.36792      2.29898      8.40813         0.003693      0.016082     -0.047616
Li	      4.42286      2.23231      6.57203         0.065645      0.058423     -0.008814
Li	      6.40713      4.27609      6.55420        -0.019990     -0.026250      0.046945
Li	      6.55743      8.58481      6.56117         0.029574     -0.013698      0.067935
Li	      4.31054      4.33265      8.56915        -0.020823      0.012300      0.033511
Li	      6.52612      6.49127      8.55016         0.024834     -0.021467     -0.044976
Sc	      2.18724      6.48571      8.52510        -0.014931      0.049296     -0.065315
Sc	      4.38367      8.60100      8.51111        -0.035289     -0.024423     -0.036988
Sc	      6.52158      6.45030      4.42502         0.031810     -0.029921      0.012645
Sc	      4.29541      4.36089      4.39337        -0.019082      0.029765      0.003497
Mn	      8.59737      6.59470     10.72678        -0.022681      0.003991      0.037839
Mn	      4.36462      6.43388      6.51990        -0.012868      0.011441      0.019205
V	      8.54877      4.46439      8.40463         0.013547     -0.081313     -0.035864
V	      6.41103      4.47539     10.71781        -0.115680      0.050863      0.107030
Fe	      6.56556      8.61440     10.89201         0.035329     -0.037440     -0.170017
O	      2.21708      2.19698      2.21316         0.023663     -0.000512      0.012766
O	      4.27656      4.28791      2.16823        -0.010331      0.005516      0.027286
O	      4.29096      2.26861      4.27647         0.011222      0.012108     -0.023903
O	      6.38311      4.35809      4.24128        -0.028137      0.013212      0.003268
O	      6.44986      2.21480      6.28359        -0.043537      0.033177      0.253614
O	      8.57937      4.33451      6.66316         0.020476      0.033247      0.000358
O	      2.17612      4.26447      4.18400         0.014515     -0.092250      0.003944
O	      4.38352      6.52774      4.27754         0.109936     -0.076851      0.023542
O	      4.31251      4.44657      6.41900        -0.026079     -0.001510      0.021693
O	      6.31006      6.48204      6.43832        -0.008065     -0.010088      0.057046
O	      6.60770      4.38531      8.74183        -0.027950      0.000486     -0.088815
O	      8.62772      6.35401      8.58911        -0.029097      0.019669     -0.051001
O	      2.37656      6.43146      6.49672         0.036730     -0.007562      0.029136
O	      4.37083      8.49660      6.40307         0.043917     -0.040117      0.018509
O	      4.24054      6.57268      8.65495        -0.012972     -0.018503     -0.017806
O	      6.42382      8.71543      8.76715         0.013548      0.001738     -0.038916
O	      6.44265      6.48713     10.82722        -0.098849     -0.003959     -0.064105
O	      8.60388      8.71779     10.74088         0.149595      0.083009     -0.018767
