# total energy = -245.87731459 eV
 
CRYSTAL
PRIMVEC
0.051617 6.344807 6.451487 
6.438406 0.017558 6.485704 
4.304296 4.264958 -0.000210 
PRIMCOORD
36 1
Li	      0.26535      6.34254      6.51107        -0.006106      0.047004      0.002318
Li	      2.30394      6.24858      8.38188        -0.040392      0.049472      0.026355
Li	      4.45311      8.39872      8.52938        -0.055684      0.004931      0.036035
Li	      6.37644      6.46129      4.48695         0.013185     -0.006598      0.023736
Li	      6.40327      4.33750      6.43633         0.015041     -0.027252      0.023325
Li	      2.21630      6.31685      4.55166        -0.009535      0.015036     -0.056247
Li	      6.47455      8.62073      6.61023         0.004806      0.017216     -0.007381
Li	      4.30517      6.40575      6.63230        -0.021989     -0.033916     -0.020630
Li	      6.31681      6.49843      8.44007        -0.034483     -0.003520      0.005379
Sc	      4.20819      0.04938      4.23854        -0.032485     -0.010727      0.022209
Sc	      6.55474      8.38313     10.71679         0.044275     -0.055588      0.108336
Sc	      4.35477      4.34706      4.37435        -0.005510      0.036908     -0.063942
Sc	      8.41073      6.37636      6.52000         0.077307     -0.039291     -0.014572
Mn	      0.05289      2.08841      2.10613         0.040608      0.035294     -0.018803
Mn	      4.28704      4.31909      8.49253         0.049345      0.002688      0.049889
V	      4.39285      8.51911      4.41188         0.010016      0.012449     -0.303100
V	      2.17865      4.21229      2.13274        -0.045874     -0.068969     -0.014547
Ni	      2.19572      8.38881      6.45947         0.044859      0.069067      0.031825
O	      2.25774      2.38168      2.06042         0.043908      0.061191      0.033360
O	      4.20410      4.39769      2.20676        -0.005141     -0.033326      0.058933
O	      4.38752      2.14570      4.39756        -0.016599     -0.043627     -0.007402
O	      6.42787      4.16160      4.36361         0.014960      0.008485     -0.041140
O	      6.45973      2.11617      6.59549        -0.147770      0.032382      0.013778
O	      8.56307      4.25677      6.53985         0.013176     -0.026129      0.032384
O	      2.10457      4.25004      4.13152         0.021525      0.056557      0.052596
O	      4.37234      6.42905      4.10926         0.007650     -0.037313     -0.026788
O	      4.29714      4.20220      6.39524        -0.008582      0.005482      0.010122
O	      6.47334      6.37310      6.46263        -0.074939      0.019094     -0.007438
O	      6.52451      4.09352      8.78918         0.012151      0.041249     -0.047988
O	      8.57827      6.17434      8.58413        -0.056014     -0.059549     -0.043222
O	      2.23356      6.40978      6.46306        -0.033037     -0.041774      0.048442
O	      4.34958      8.44100      6.15641         0.153795      0.015978      0.314655
O	      4.31867      6.39938      8.71049         0.057351      0.040653     -0.091412
O	      6.49770      8.47455      8.72871        -0.033389     -0.047616     -0.036309
O	      6.41425      6.25578     10.79637         0.034022      0.013174     -0.057586
O	      8.71913      8.51991     10.78864        -0.030453     -0.049115     -0.035170
