# total energy = -252.60289505 eV
 
CRYSTAL
PRIMVEC
0.020803 6.533957 6.419249 
6.482001 -0.017618 6.457771 
4.291043 4.351498 0.018478 
PRIMCOORD
36 1
Li	      6.39673      0.11799      6.40516         0.010851      0.022070      0.020030
Li	      8.52617      2.22412      6.41708        -0.031483      0.012717     -0.012184
Li	      6.45799      4.24377      2.31239        -0.037888     -0.020663      0.032425
Li	      4.34659      2.26319      2.32038         0.028546      0.085764     -0.025022
Li	      6.29252      2.33711      4.44856        -0.012697      0.016101     -0.024421
Li	      4.47910      4.14756      4.27684        -0.017535      0.028665     -0.017773
Li	      4.45771      2.12064      6.27976        -0.047292      0.024332     -0.003054
Li	      6.49606      4.20068      6.28678        -0.027626     -0.006216     -0.007875
Li	      6.45130      6.57558      8.61011         0.011008      0.045232      0.006659
Sc	      6.55285      2.04519      8.41250        -0.092356     -0.035987      0.117321
Sc	      6.53278      6.41806      4.31704        -0.024772     -0.089651      0.029245
Sc	      6.48785      8.69198      6.53537         0.020584     -0.059808      0.097890
Sc	      8.60214      8.71877      8.61773        -0.124815     -0.054914     -0.081213
Mn	      8.61649      4.39071      4.38464        -0.110623      0.148552     -0.046704
Mn	      8.64728      4.32062      8.42287         0.111143      0.008682      0.044253
Mn	      4.30955      6.53265      6.58374         0.078222     -0.001340     -0.040849
V	      4.30028      8.73822      4.36840         0.180772     -0.197733     -0.072916
V	      2.11732      6.52650      4.33550         0.149360     -0.039978     -0.149897
O	      2.10389      2.26254      2.18631         0.116247      0.018398     -0.039515
O	      4.14339      4.38489      2.11580        -0.036568     -0.085736     -0.014759
O	      4.26965      2.13374      4.29517         0.009162     -0.054924     -0.003717
O	      6.46722      4.40506      4.29085         0.108976      0.024232      0.045840
O	      6.46719      2.18516      6.47717         0.009224     -0.001166     -0.114131
O	      8.60686      4.36756      6.32420         0.018057     -0.042995     -0.034893
O	      2.04627      4.42307      4.31192        -0.095586      0.076132     -0.059431
O	      4.23714      6.66286      4.26555        -0.052685      0.137914      0.055816
O	      4.26754      4.37398      6.54502         0.028864      0.046359      0.029100
O	      6.39468      6.64475      6.38746        -0.003325      0.006534      0.024180
O	      6.54391      4.27609      8.77921        -0.033306      0.053349      0.083775
O	      8.67539      6.49125      8.81213        -0.046030      0.016635      0.084016
O	      2.19561      6.49016      6.24600        -0.007168      0.017952      0.008798
O	      4.34230      8.67420      6.20730        -0.068376      0.028101     -0.013329
O	      4.37405      6.44101      8.74975         0.005772     -0.061919      0.064315
O	      6.54507      8.71626      8.55451         0.115712      0.001714     -0.025179
O	      6.59179      6.33642     10.72867        -0.086160     -0.057496      0.010549
O	      8.80274      8.64650     10.73483        -0.046213     -0.008910      0.032647
