# total energy = -100.51603304 eV
 
CRYSTAL
PRIMVEC
0.000144 2.073765 2.073769 
16.955746 0.000489 0.000613 
-0.000009 2.077161 -2.077166 
PRIMCOORD
16 1
Li	      0.11770      2.07815     -2.07606        -0.052011      0.000530      0.000592
Li	      4.23894      2.07794     -2.07615        -0.000895     -0.000518     -0.000115
Li	      8.36117      2.07867     -2.07553         0.047082      0.000863      0.000755
Li	     12.71488      2.07871     -2.07551         0.015399     -0.001099     -0.001168
Ti	     10.65508      2.07740      0.00025        -0.575834     -0.001969     -0.001167
Ti	     14.77927      2.07728      0.00023         0.576022     -0.002260     -0.002090
Ni	      2.25781      2.07637     -0.00050        -0.107996      0.000408     -0.000064
Ni	      6.21952      2.07660     -0.00027         0.113071      0.000239      0.000356
O	     12.71625      2.07725      0.00018         0.004858      0.001470      0.001629
O	     14.66932      2.07865     -2.07554        -0.005588      0.002376      0.002081
O	      8.86189      2.07715      0.00008         0.519890     -0.001041     -0.000930
O	     10.76430      2.07879     -2.07541         0.000444      0.001436      0.000475
O	      4.23890      2.07633     -0.00048        -0.002747      0.001699      0.002396
O	      6.45501      2.07829     -2.07577         0.009503     -0.000500     -0.000725
O	     16.57289      2.07714      0.00016        -0.534980     -0.001329     -0.001420
O	      2.02257      2.07804     -2.07601        -0.006219     -0.000306     -0.000606
