# total energy = -255.83709299 eV
 
CRYSTAL
PRIMVEC
0.008764 6.455485 6.361147 
6.329092 0.037769 6.332130 
4.236376 4.301603 0.008159 
PRIMCOORD
36 1
Li	     10.41044      4.36919      6.33808        -0.055527      0.000766     -0.004589
Li	      8.41558      2.33668      6.30957        -0.004164      0.016684      0.019046
Li	      8.43907      4.36214      4.42588         0.000979      0.059886     -0.025424
Li	     10.50440      6.42215      8.40644         0.009964     -0.045669      0.002917
Li	      8.56529      4.36642      8.30059         0.049451      0.021973      0.043483
Li	      4.23777      4.30739      4.29097         0.013013     -0.034995      0.011263
Li	      8.53175      6.39104      6.36701        -0.018233     -0.000601      0.026464
Li	      2.20089      4.39729      6.24972         0.080521      0.005414      0.012552
Li	      4.18455      6.39604      6.30438         0.019899     -0.026043      0.010321
Sc	      2.06911      6.51316      8.29290        -0.027864      0.105058     -0.017815
Sc	      4.18853      8.69159      8.30642        -0.102751     -0.023819     -0.025977
Sc	      6.35983      6.50642      4.31006         0.040625     -0.003220     -0.042870
Sc	      6.37433      6.44334      8.40222         0.009253     -0.055749     -0.024855
V	      6.28022      2.18048      4.33442        -0.021616     -0.015407      0.061815
Cr	      6.38409      4.28302      6.35761         0.027856     -0.013410      0.015444
Cr	      4.22766      8.60804      4.35659        -0.018614      0.042796     -0.046935
Cr	      2.17159      6.41411      4.31914        -0.000461     -0.028556     -0.018780
Cr	      4.23247      4.31287      8.42445         0.067870      0.019404     -0.000057
O	      2.16111      2.08275      2.19546        -0.018898      0.015055     -0.022569
O	      4.28267      4.24901      2.08451        -0.015671      0.012136      0.011868
O	      4.27769      2.17362      4.13829        -0.031369      0.002602      0.017095
O	      6.32245      4.32385      4.29506         0.000291      0.035427      0.000977
O	      6.34318      2.28450      6.22820        -0.017671     -0.018096      0.085347
O	      8.34694      4.33053      6.37163        -0.049502      0.016200     -0.001478
O	      2.01151      4.34177      4.26757         0.002346      0.035931     -0.006598
O	      4.21514      6.59871      4.27068        -0.020815     -0.021980     -0.009362
O	      4.32619      4.29643      6.47841        -0.015098      0.014131     -0.000375
O	      6.38973      6.36291      6.36224        -0.039740      0.006120      0.013131
O	      6.23789      4.37065      8.50352        -0.018058     -0.019149      0.015020
O	      8.44114      6.58885      8.59368        -0.014219      0.011479      0.019833
O	      2.14840      6.43052      6.31120         0.024622     -0.034969     -0.025335
O	      4.22758      8.61389      6.30480         0.007984     -0.011390     -0.025613
O	      4.24462      6.42221      8.47180        -0.008622     -0.038449     -0.024664
O	      6.38241      8.61355      8.54881         0.042206      0.009387     -0.040046
O	      6.43836      6.44716     10.56602         0.010194     -0.067790      0.017448
O	      8.43650      8.50985     10.52074         0.091819      0.028843     -0.020683
