# total energy = -236.18683551 eV
 
CRYSTAL
PRIMVEC
-0.031578 6.507679 6.450501 
6.171168 0.013653 6.405191 
4.122769 4.316914 -0.000042 
PRIMCOORD
36 1
Li	     10.22682      4.42377      6.44789         0.053470      0.113679      0.064348
Li	      4.15009      8.65561      8.57138         0.008990      0.015189     -0.003975
Li	      6.13685      2.26825      8.47831        -0.040097     -0.003294     -0.073813
Li	      4.12276      4.33221      4.34568        -0.049768      0.069253      0.014817
Li	      4.23650      2.24374      6.32741        -0.041592      0.065897     -0.003263
Li	      6.10659      4.20203      6.51392        -0.010966     -0.040368      0.026759
Li	      6.13507      4.35073     10.59266        -0.000336     -0.096828     -0.053684
Li	      4.21299      4.34978      8.49445        -0.059028     -0.049635      0.017100
Li	      6.10317      6.50130      8.53957         0.083415      0.033289     -0.072140
Sc	      8.21742      2.24664      6.37554        -0.208550     -0.202680     -0.019270
Sc	      6.04798      4.19543      2.19584        -0.083788     -0.171753     -0.056408
Sc	      8.17042      4.35002      8.49590        -0.004751      0.144078      0.245001
Sc	      2.15478      2.15084      4.30536        -0.137023      0.275612      0.106628
V	      8.13649      6.50630     10.60740         0.232374     -0.455984     -0.071821
V	      4.13792      6.46113      6.53130         0.134369     -0.001724     -0.257639
Co	      6.13673      8.67016      6.44341         0.017033      0.077695      0.259363
Cu	      4.21498      6.60820     10.74463        -0.002771      0.161104      0.141626
Cu	      6.07564      2.18591      4.33513         0.189511      0.059772     -0.399080
O	      2.04202      2.17087      2.14861         0.027011     -0.013951     -0.012717
O	      4.09167      4.34415      2.11842         0.081692     -0.027227     -0.031476
O	      4.15129      2.25049      4.29079        -0.210404     -0.148258     -0.044276
O	      6.15794      4.46200      4.21891         0.443687      0.169047      0.143935
O	      6.18951      2.16989      6.33429         0.030167     -0.014413      0.162607
O	      8.24941      4.24764      6.46387         0.009310      0.078515     -0.336370
O	      2.06952      4.43795      4.38209        -0.011628      0.136009     -0.987798
O	      3.97174      6.51109      4.51422         0.038223     -0.036265      0.058566
O	      3.95738      4.50103      6.44171         0.295484     -0.015667     -0.050523
O	      6.09302      6.70407      6.38843        -0.069843     -0.925696     -0.095097
O	      6.18845      4.35712      8.56845        -0.040521     -0.034248     -0.062211
O	      8.27436      6.45911      8.83840        -0.082482      0.025912      0.049717
O	      2.07651      6.41639      6.40543         0.002050      0.760579     -0.072252
O	      4.15695      8.49694      6.40920        -0.160421     -0.025054      0.033414
O	      4.06421      6.50161      8.34526         0.022089      0.016313      0.265656
O	      6.14710      8.66963      8.44396        -0.054689      0.097526      1.073124
O	      6.37544      6.36357     10.75866        -0.519228     -0.109545      0.024407
O	      8.10365      8.38072     10.75035         0.119009      0.073121      0.016744
