# total energy = -236.72923510 eV
 
CRYSTAL
PRIMVEC
0.014014 6.376141 6.287946 
6.507490 0.045879 6.255507 
4.365089 4.255351 0.004540 
PRIMCOORD
36 1
Li	     10.75521      4.26858      6.25372        -0.017548     -0.054618     -0.003197
Li	      8.66004      2.29980      6.21324         0.039325     -0.021228     -0.029723
Li	      4.35705      2.15285      2.10928         0.034474      0.064915     -0.071103
Li	      8.65742      4.36573      4.32253        -0.014283      0.002835      0.000163
Li	      6.66240      6.37295      4.36803         0.032723      0.017773     -0.058834
Li	      8.48839      6.40850      6.20250         0.028355      0.016937     -0.030690
Li	      6.62401      8.26026      6.33923         0.011449      0.004579     -0.043482
Li	      4.65948      6.31266      6.24219        -0.019023      0.054021     -0.055780
Li	      6.57382      6.35936      8.21812         0.062202      0.002107      0.014647
Sc	      6.37249      2.15397      4.21363        -0.073359      0.032410     -0.024824
Sc	      6.51806      2.14530      8.24689        -0.026611     -0.186897      0.133162
Sc	      8.73327      4.25932      8.25836         0.068684     -0.009097      0.100149
Sc	      2.20275      6.35944      4.34882         0.086107     -0.073897      0.079065
V	      2.40553      6.40952      8.27337         0.022401      0.017450      0.018499
V	      4.34419      8.54402      4.34061        -0.001042     -0.010055      0.874216
Co	      4.34075      4.19230      4.28996        -0.003438      0.061426     -0.148303
Ni	      6.52585      4.39820      6.24015         0.020740     -0.090365     -0.093726
Ni	      4.35616      4.24544      8.27352        -0.047798     -0.028478      0.041924
O	      2.14184      1.98565      2.06776        -0.056471      0.047216      0.025838
O	      4.32430      4.28544      2.13414        -0.039291     -0.063174      0.343099
O	      4.39499      2.16611      4.13341         0.018604      0.193244      0.049510
O	      6.50183      4.26451      3.94916         0.043793     -0.003725     -0.050005
O	      6.58074      2.25658      6.23129        -0.007225     -0.059687      0.001910
O	      8.64267      4.28864      6.30615         0.048736     -0.010436      0.052149
O	      2.01705      4.28742      4.19216        -0.031415      0.033398     -0.077304
O	      4.28431      6.49479      4.17963        -0.058183     -0.133375     -0.013816
O	      4.44935      4.30195      6.27100        -0.045353     -0.044148     -0.501020
O	      6.54829      6.36316      6.31258         0.013416      0.138711      0.075067
O	      6.54517      4.26023      8.47911         0.004148      0.004195      0.085735
O	      8.78052      6.37786      8.44765         0.002401     -0.069092      0.008410
O	      2.10620      6.41921      6.47982        -0.031889      0.021189      0.001529
O	      4.30798      8.53565      6.10404         0.006782     -0.001141     -0.641200
O	      4.14808      6.41643      8.32035        -0.000508      0.049553     -0.015527
O	      6.59714      8.76381      8.36522         0.007610     -0.000922     -0.012508
O	      6.58312      6.37555     10.44484        -0.006598      0.116677     -0.053461
O	      8.79530      8.51809     10.37783        -0.071920     -0.018300      0.019432
