# total energy = -240.53354546 eV
 
CRYSTAL
PRIMVEC
0.028713 6.421920 6.257620 
6.379843 0.013720 6.271536 
4.261215 4.298498 0.001463 
PRIMCOORD
36 1
Li	      2.18002      2.16860      0.08038         0.018933     -0.032391     -0.032014
Li	      2.29225      6.54008      8.26259        -0.047024      0.010657      0.048847
Li	      4.27848      8.35957      8.29271         0.029168      0.051917      0.018699
Li	      8.54570     10.63203     10.39506         0.029403     -0.037716      0.079280
Li	      8.44625      4.20855      8.29241        -0.005714     -0.002721     -0.045052
Li	      6.41271      4.21023      6.30485         0.021240     -0.002825      0.016166
Li	     10.59181      8.58369     10.45903         0.013272     -0.014825      0.006690
Li	      4.19037      6.44575      6.43953        -0.011228      0.022992     -0.032208
Li	      4.29724      4.33497      8.33954        -0.007197     -0.006265     -0.013670
Sc	      6.41522      2.29062      4.13104         0.046061     -0.184364     -0.013513
Sc	      2.15107      2.11543      4.09716         0.001693      0.070160     -0.009564
Sc	      2.22362      6.47134      4.14082        -0.005529      0.069434     -0.122959
Sc	      6.26710      6.24930      8.35310         0.094367     -0.034633      0.026358
V	      4.16344      4.26736      0.10140        -0.380936     -0.000782     -0.090143
V	      2.18056      4.33139      6.33822         0.170130      0.028745      0.053322
Co	      6.39990      2.21890      8.30598         0.044830     -0.005037      0.034070
Co	      4.27067      4.31536      4.09698         0.116218      0.002554      0.020831
Cu	      8.51848      6.45451      6.30017        -0.012753     -0.039394      0.014033
O	      1.99498      2.17775      2.07767        -0.025200     -0.050191      0.079873
O	      4.28638      4.54184      2.00876        -0.026829     -0.058981      0.174840
O	      4.26182      2.20613      4.25299        -0.002425      0.058208     -0.090810
O	      6.38094      4.32581      4.26574        -0.107596      0.058829     -0.013719
O	      6.28626      2.06882      6.34777         0.165448      0.053338     -0.023882
O	      8.77837      4.16500      6.23741         0.277979     -0.006545      0.015416
O	      2.14357      4.29617      4.27842         0.025647     -0.112174     -0.030527
O	      4.29975      6.47281      4.01379         0.013273     -0.074106     -0.015895
O	      4.01481      4.45900      6.20751        -0.266894      0.116050     -0.029929
O	      6.47034      6.57331      6.27677        -0.156894      0.011606     -0.033754
O	      6.38596      4.20758      8.28572         0.001197      0.004857     -0.025098
O	      8.60714      6.42823      8.30031         0.082192      0.013359      0.148760
O	      2.01575      6.35265      6.25309        -0.007326      0.078129      0.008393
O	      4.49435      8.70649      6.32145         0.041397     -0.131236      0.006367
O	      4.32897      6.40808      8.36390        -0.088831      0.029811      0.016695
O	      6.40828      8.48793      8.32882        -0.024670      0.059934     -0.024566
O	      6.46856      6.48601     10.48455         0.033025      0.014373     -0.055900
O	      8.47418      8.50396     10.51478        -0.048427      0.039233     -0.065436
