# total energy = -237.59271613 eV
 
CRYSTAL
PRIMVEC
0.011202 6.523071 6.281916 
6.327706 -0.013151 6.306514 
4.212572 4.359787 -0.003388 
PRIMCOORD
36 1
Li	      2.33001      8.49995      6.17884         0.003215     -0.017855     -0.120116
Li	      2.10105      6.60437      8.20247         0.002160     -0.006474      0.057064
Li	      4.22277      8.61644      8.20410         0.004571     -0.041573      0.091422
Li	      4.13284      4.43608      4.32556        -0.018239      0.061955     -0.005069
Li	      4.17002      2.23746      6.20122        -0.018751      0.033073     -0.062508
Li	      4.27377      8.64304      4.42468         0.071129     -0.130329     -0.020320
Li	      2.19559      6.40170      4.40814         0.035468     -0.000286     -0.015588
Li	      1.98015      4.51317      6.17704         0.040444     -0.026369     -0.037174
Li	      4.03725      6.74423      6.21483         0.069866      0.035826     -0.078803
Sc	      4.27160      6.46325      2.12390        -0.146161      0.014386      0.238403
Sc	      2.20579      4.30878      2.06179         0.054791      0.090452      0.076029
Sc	      6.30385      4.45086      6.18153        -0.050293     -0.027845     -0.117596
Sc	      4.14687      4.39061      8.34575         0.001583      0.032219      0.051299
V	      6.26306      2.15848      4.25896        -0.192792      0.063799      0.063591
V	      6.32093      6.53023      8.38042        -0.040696      0.139394      0.100063
Co	      8.41002      4.33681      4.22211        -0.100241      0.063543     -0.019574
Co	      2.11265      2.33620      4.22605         0.354480     -0.331943     -0.338493
Ni	      4.33741     10.68697      6.26026        -0.130053      0.090087     -0.042049
O	      2.08098      2.25106      2.17286         0.260029     -0.002053      0.952900
O	      4.19962      4.47323      2.04371         0.055258      0.003053      0.042400
O	      4.18887      1.95474      4.21041        -0.154141      0.040119      0.019423
O	      6.43481      4.19614      4.15401         0.029780      0.248416     -0.042331
O	      6.27290      2.23503      6.13562         0.018056     -0.015433      0.107035
O	      8.42348      4.36510      6.22689        -0.020820     -0.027256     -0.005269
O	      2.18152      4.25179      4.13887        -0.179500     -0.474895     -0.012014
O	      4.43670      6.48330      4.16808         0.165829      0.360681     -0.087856
O	      4.29687      4.30280      6.35444        -0.053610     -0.018355      0.006480
O	      6.36702      6.49753      6.37938        -0.081391      0.048220     -0.600735
O	      6.33345      4.33771      8.34667        -0.000242      0.040620     -0.078189
O	      8.40329      6.51700      8.49776        -0.023759     -0.041761      0.040542
O	      2.08721      6.52969      6.26942         0.163019      0.037016      0.017940
O	      4.23364      8.72267      6.28809        -0.065493     -0.139234      0.080169
O	      4.32407      6.45438      8.55675        -0.019143     -0.037510     -0.010149
O	      6.31882      8.59138      8.61653        -0.020175     -0.078871     -0.124255
O	      6.17225      6.65308     10.46191        -0.028015     -0.056228     -0.128950
O	      8.27729      8.86209     10.47574         0.013838      0.071411      0.002277
