# total energy = -242.66393730 eV
 
CRYSTAL
PRIMVEC
0.033486 6.367530 6.405692 
6.417529 0.047303 6.391643 
4.310400 4.267627 -0.000336 
PRIMCOORD
36 1
Li	      8.52912      4.33767      4.28983        -0.024847     -0.061314      0.014772
Li	      6.39457      2.28909      8.56500         0.029431     -0.033624     -0.000038
Li	      2.10974      4.23113      2.22498         0.023732     -0.023304      0.063218
Li	      6.45867      6.40422      4.26765        -0.070794     -0.029106      0.030497
Li	      4.23019      4.32637      4.26429        -0.013882      0.049906     -0.015429
Li	      6.41422      4.31417      6.44032        -0.065625      0.026324     -0.022161
Li	      2.18229      4.24155      6.31669         0.065387     -0.086993     -0.003412
Li	      4.45312      4.25746      8.54349        -0.001850      0.103046     -0.038563
Li	      6.38338      6.36294      8.55601        -0.085191      0.000371     -0.008386
Sc	      6.45318      6.43187     12.77748         0.010005      0.070437      0.033942
Sc	      8.47736      2.30499      6.39191         0.004664     -0.013939     -0.021033
Sc	      6.47922      4.24542      2.28444         0.047023     -0.035603      0.025622
Sc	      6.51388      4.26208     10.47708         0.033861      0.042413     -0.040110
V	      4.32086      2.12687      2.30281         0.053033     -0.044707      0.146972
V	      8.44480      6.51913      6.58693        -0.111142      0.027431      0.031422
Co	      6.49374      8.54775     10.64185         0.051975     -0.006381     -0.113687
Co	      2.23768      6.31865      4.25994        -0.021218     -0.027732     -0.025149
Co	      4.30607      6.35377      6.35690         0.011780     -0.040725      0.009213
O	      2.29077      2.10313      2.10174         0.036304      0.044642     -0.076961
O	      4.35516      4.09441      2.09371         0.038237      0.174258     -0.048010
O	      4.31678      2.12995      4.13009        -0.073680     -0.059358     -0.242083
O	      6.50062      4.22129      4.26171        -0.021426     -0.090748     -0.153639
O	      6.35394      2.14389      6.42566        -0.037445     -0.008222     -0.101792
O	      8.64669      4.45198      6.34965         0.012636      0.048009      0.021395
O	      2.12245      4.32087      4.26282        -0.014982      0.012940      0.046322
O	      4.30643      6.39004      4.34943        -0.059523      0.061016      0.041503
O	      4.29249      4.02897      6.37454         0.026817     -0.135519      0.017211
O	      6.69217      6.39540      6.35771         0.150054     -0.012894      0.029634
O	      6.42876      4.26725      8.52938         0.051058      0.004362      0.142764
O	      8.59355      6.41746      8.30577        -0.020907      0.033716      0.155735
O	      2.14673      6.47893      6.47132        -0.011386      0.039717     -0.035405
O	      4.23521      8.55264      6.47042        -0.003314      0.021510      0.036406
O	      4.31732      6.52487      8.39453         0.000899     -0.128758      0.008698
O	      6.31754      8.51770      8.50806        -0.024454      0.023469     -0.024400
O	      6.50985      6.41190     10.68826         0.003711      0.055525      0.025830
O	      8.62574      8.50443     10.70969         0.011058     -0.000166      0.089101
