# total energy = -245.59042839 eV
 
CRYSTAL
PRIMVEC
-0.013926 6.412589 6.484622 
6.206750 0.040882 6.429737 
4.182729 4.283172 -0.017370 
PRIMCOORD
36 1
Li	      8.28064      2.21634      6.42519         0.033088     -0.019580     -0.012737
Li	      4.17600      8.57134      8.57657         0.031881      0.020330     -0.039030
Li	      8.24874      4.35105      4.34744         0.029777      0.062898      0.022959
Li	      4.18816      6.39638      2.18358         0.010321     -0.041336      0.088246
Li	      6.25571      6.37156      4.33173         0.006759     -0.022874     -0.027579
Li	      4.15991      4.36983      4.45875         0.045970      0.025682      0.065649
Li	      4.11866      2.30245      6.41134         0.022459      0.038963     -0.048940
Li	      4.18055      6.30664      6.39867         0.012669     -0.044234     -0.046075
Li	      4.15190      4.23646      8.44581         0.008234     -0.056641     -0.054088
Sc	     10.33147      4.36673      6.40538        -0.007231     -0.036170     -0.041101
Sc	      2.14586      0.10333      2.13724         0.025995     -0.063305     -0.047413
Sc	      2.10804      4.17276      2.15975         0.004849      0.003632      0.055319
Sc	      4.07048      8.44961      4.34760         0.029468      0.097697      0.039485
V	      6.11929      2.24027      4.28782         0.139769     -0.161456     -0.231102
V	      6.12419      6.48081      8.50753         0.063458      0.111038      0.235233
Cr	      2.09012      6.39391      4.33839        -0.097044     -0.064861      0.062706
Co	      6.16857      4.29490      6.41906        -0.006908      0.071258      0.141027
Ni	      2.14812      4.26452      6.42814         0.058671     -0.005003      0.108260
O	      2.10591      2.11886      2.20288        -0.015161      0.044492     -0.024393
O	      4.20489      4.33653      2.02732        -0.004184      0.036642      0.006101
O	      4.37173      2.12986      4.25860        -0.307002      0.003480      0.026935
O	      6.30008      4.16918      4.20437        -0.035590      0.163703     -0.048037
O	      6.23703      2.18873      6.25355        -0.010161      0.032036      0.064550
O	      8.28155      4.31494      6.50477         0.128868      0.036848     -0.000539
O	      2.04327      4.34355      4.29824         0.031492     -0.031837     -0.083729
O	      4.06129      6.46133      4.26312         0.094833     -0.101141      0.035589
O	      4.17211      4.28975      6.45807         0.005241     -0.029405     -0.048961
O	      6.25022      6.47047      6.62201         0.035997     -0.152548     -0.187269
O	      6.20798      4.44375      8.63819        -0.033167     -0.080251      0.047559
O	      8.08650      6.39151      8.76295         0.113141      0.016512     -0.058631
O	      2.07802      6.38127      6.45287        -0.006090      0.125032     -0.032603
O	      4.22759      8.66261      6.36236        -0.195635     -0.014236      0.029131
O	      4.30030      6.46951      8.65946        -0.144109     -0.006773     -0.029207
O	      6.25143      8.53013      8.67097         0.003047      0.003538     -0.004960
O	      6.23522      6.49755     10.72765        -0.029449     -0.006793      0.017293
O	      8.19087      8.44668     10.76078        -0.044256      0.044663      0.020350
