# total energy = -246.57766926 eV
 
CRYSTAL
PRIMVEC
0.044673 6.511595 6.404141 
6.197813 0.045130 6.404754 
4.157837 4.367204 0.004109 
PRIMCOORD
36 1
Li	      6.28522      6.50476     12.66659        -0.014089      0.011363      0.032064
Li	      8.36362      8.68652     12.65708        -0.005441     -0.046020     -0.018899
Li	      6.26313      4.37158      2.19653        -0.015654     -0.053142      0.062212
Li	      6.31348      8.65175     10.74704        -0.065949      0.003180      0.017236
Li	      6.29767      6.44976      4.28120        -0.031715     -0.075279      0.016305
Li	      6.27982      4.33489      6.33409        -0.045503     -0.051656      0.011579
Li	      6.20044      4.54272     10.68806         0.002067     -0.016908     -0.039314
Li	      2.04618      4.45646      6.32055        -0.007478      0.024703     -0.033381
Li	      6.20168      6.54719      8.69448        -0.018662      0.022751     -0.016007
Sc	      0.08636      2.15909      2.09697         0.019891     -0.009264     -0.003710
Sc	      8.22786      4.39662      8.54785        -0.030915     -0.028585      0.141042
Sc	      4.29165      4.30293      4.33606        -0.009198      0.022171      0.026994
Sc	      4.16572      6.56948      6.41563         0.059991     -0.018503     -0.160997
V	      4.31491      8.66585      8.48343         0.166845      0.268742      0.109610
V	      8.22130      6.50430      6.36835        -0.057448      0.209574      0.016726
Cr	      8.20262      6.61016     10.70649         0.058844     -0.022818     -0.037264
Co	      8.33479     10.82833     10.71037        -0.008876     -0.127984      0.021564
Co	      8.30725      8.75538      8.58025        -0.079217      0.038087     -0.032810
O	      2.18162      2.26942      2.14897         0.016969     -0.035210     -0.006697
O	      4.15963      4.30849      2.19334         0.032552     -0.024329     -0.052753
O	      4.13011      2.20943      4.32675         0.036347     -0.152936     -0.080387
O	      6.25959      4.39861      4.28443        -0.103251     -0.030055     -0.001762
O	      5.95661      2.22379      6.47607         0.137103      0.018545     -0.033048
O	      8.27146      4.57172      6.44202         0.013829     -0.156534     -0.308669
O	      2.11927      4.52306      4.21249        -0.045090      0.004916      0.001294
O	      4.13639      6.45184      4.26605        -0.039351      0.043376      0.013059
O	      4.13931      4.36051      6.44872         0.003867     -0.030693      0.039230
O	      6.38817      6.61202      6.39534        -0.070111     -0.009433      0.022893
O	      6.20647      4.25463      8.52833         0.015441     -0.012553      0.017802
O	      8.28761      6.53082      8.50564         0.032774      0.069526      0.026608
O	      2.14070      6.57854      6.27071         0.006011      0.014742      0.021348
O	      4.19019      8.64432      6.58157        -0.014102      0.052114     -0.042123
O	      4.18016      6.68371      8.49518        -0.022130     -0.080291      0.185568
O	      6.08859      8.76894      8.58210        -0.088587     -0.012516     -0.028449
O	      6.23791      6.53634     10.67068         0.153786      0.075377      0.012834
O	      8.29223      8.66381     10.59453         0.016449      0.115540      0.100303
