# total energy = -241.47498356 eV
 
CRYSTAL
PRIMVEC
-0.030293 6.475269 6.325361 
6.413574 -0.032991 6.327404 
4.264092 4.307038 -0.010322 
PRIMCOORD
36 1
Li	      6.43712      6.58934     12.49914        -0.023646      0.010784      0.013559
Li	      8.35033      8.53823     12.52324        -0.008213     -0.015525      0.034094
Li	      6.53038      8.43736     10.64623        -0.069642      0.037552     -0.055262
Li	     10.52494      6.49785      8.41801         0.043200     -0.014141      0.031063
Li	      2.12192      2.19985      4.23766         0.031052     -0.015952     -0.002630
Li	      6.34324      4.41540     10.38444         0.031925      0.022906      0.054007
Li	      8.33133      6.59204     10.41101         0.012699     -0.009356      0.045850
Li	      8.60392      8.34635      8.63488         0.049820     -0.041750     -0.057748
Li	      6.61188      6.32542      8.54091        -0.055228     -0.047641     -0.042666
Sc	      4.26818      2.19571      2.11623        -0.025600     -0.000458      0.085681
Sc	      8.66384     10.56259     10.58838        -0.138472      0.049716      0.057062
Sc	      6.41779      4.17258      6.44966        -0.087573      0.008942     -0.099177
Sc	      4.25320      6.54000      6.25722         0.055022     -0.083309     -0.045381
V	      2.11473      0.07350      2.13526        -0.099668      0.060322      0.174039
V	      4.20907      4.35293      4.20266         0.181215     -0.076548      0.206790
Cr	      2.12552      4.32681      6.30298         0.275584     -0.013426     -0.123348
Cu	      8.58237      6.39931      6.39844        -0.057706      0.024598     -0.148598
Ni	      8.46126      4.39800      8.43805         0.081942     -0.184112      0.049233
O	      2.15391      1.91816      2.08229         0.008217      0.017041     -0.066651
O	      4.29511      4.26924      2.22205        -0.022542      0.002628     -0.202963
O	      4.25667      2.34425      4.22060         0.007791     -0.005327     -0.065933
O	      6.32851      4.30401      4.12744         0.083809      0.000430     -0.019039
O	      6.31006      2.17609      6.32618         0.074479     -0.061140      0.027202
O	      8.46713      4.17645      6.33651         0.010874     -0.200618     -0.071154
O	      2.27564      4.27079      4.24189        -0.188756      0.025617     -0.001923
O	      4.30240      6.18384      4.22442        -0.007869      0.169024     -0.052789
O	      4.20060      4.41872      6.21723        -0.024466      0.187591      0.085670
O	      6.37136      6.54941      6.33479        -0.074524      0.081072      0.071930
O	      6.44967      4.26033      8.42177        -0.120530     -0.030326      0.031014
O	      8.54420      6.38224      8.34682         0.000934      0.111078      0.124611
O	      2.14398      6.38212      6.43270        -0.021413      0.022227     -0.046394
O	      4.40466      8.56893      6.35604        -0.063718      0.033340      0.010213
O	      4.07573      6.56782      8.44545         0.041634      0.026836     -0.007989
O	      6.32288      8.88659      8.31276        -0.000164      0.003557      0.028510
O	      6.32902      6.47553     10.49815         0.103187     -0.019286     -0.012647
O	      8.54851      8.61267     10.54520        -0.003652     -0.076343     -0.008236
