# total energy = -102.15220379 eV
 
CRYSTAL
PRIMVEC
4.171783 0.000301 -0.000173 
2.086615 3.981033 -6.424996 
2.086025 3.947861 2.120373 
PRIMCOORD
16 1
Li	      6.25541      3.94507      1.95410         0.001867      0.002318      0.003687
Li	      4.17408      3.95938     -0.01600         0.000243     -0.000942     -0.000138
Li	      2.09236      3.97417     -1.98621        -0.004408     -0.003605     -0.005199
Li	      4.17393      3.97587     -4.28896         0.000188     -0.000923     -0.000278
Ti	      4.18647      5.92284     -2.04859        -0.019572     -0.227375      0.153602
Ti	      6.24521      5.97707     -4.40856         0.018923      0.230648     -0.155326
Ni	      2.08664      1.98511     -0.06046         0.001650     -0.061889     -0.013887
Ni	      4.17503      1.98592     -2.09217        -0.002205      0.061997      0.013626
O	      4.17291      4.07203     -2.14874         0.001472      0.356727      0.016535
O	      6.25402      5.96874     -2.23488         0.007042     -0.014296     -0.068138
O	      4.17418      1.94419      0.09251        -0.006974      0.011789      0.258955
O	      2.08822      3.95932     -0.01605        -0.000232      0.001683     -0.000062
O	      2.08784      2.02702     -2.24522         0.006832     -0.013268     -0.257930
O	      2.08877      3.97584     -4.28891        -0.000169      0.001355      0.000539
O	      4.18214      5.93117     -4.22269        -0.004700      0.014558      0.070870
O	      6.26192      7.82804     -4.30866         0.000042     -0.358778     -0.016857
