# total energy = -248.18094874 eV
 
CRYSTAL
PRIMVEC
0.003113 6.439569 6.407236 
6.303351 -0.014172 6.423892 
4.213790 4.315564 -0.020674 
PRIMCOORD
36 1
Li	      2.02958      2.18935      0.15871        -0.043468      0.014678      0.010096
Li	      6.21251      4.44201      2.25689        -0.003593      0.057809      0.056183
Li	      6.29566      2.28370      4.35046        -0.012140      0.034636      0.009904
Li	      0.15763      2.08193      2.10491        -0.050997      0.045448     -0.023048
Li	      2.17880      4.15888      2.17544         0.006050     -0.005456      0.043387
Li	      6.28546      6.36602      4.20408         0.015741     -0.065847     -0.016657
Li	      4.24645      4.39196      4.16378         0.015852      0.039112     -0.042044
Li	      6.31091      4.19259      6.33267        -0.057659      0.005306      0.005070
Li	      2.16374      4.27913      6.30698         0.040620     -0.009334     -0.064119
Sc	      0.08792      0.10334      0.03511         0.015154      0.056304      0.084810
Sc	      4.06746      2.22764      2.19992        -0.069089      0.043371      0.035062
Sc	      4.31059      8.51261      4.29256         0.107635     -0.019492     -0.127992
Sc	      6.36059      6.40334      8.53241         0.016418     -0.107341     -0.103262
V	      4.18377      6.42053      6.33931         0.067189     -0.084898      0.152324
V	      8.34616      8.59720      8.50388         0.135641      0.002160     -0.032785
Cr	      4.21072      2.18014      6.33153        -0.040035      0.043629      0.113991
Fe	      8.21205      4.28648      4.37537         0.051923     -0.034954     -0.099761
Co	      2.14914      6.38345      4.26367         0.099166      0.008955     -0.066553
O	      2.13035      2.17535      2.13229         0.151763     -0.044120      0.022197
O	      4.23797      4.22641      2.04472         0.011528      0.000390      0.014118
O	      4.19902      2.01661      4.30586         0.036156      0.024665     -0.021647
O	      6.37086      4.27137      4.26077        -0.109024     -0.003539      0.007535
O	      6.20411      2.11165      6.40201        -0.003100     -0.065388     -0.004164
O	      8.44299      4.45689      6.33081         0.037405     -0.043643      0.092827
O	      2.09089      4.38466      4.21586        -0.113299      0.075206      0.007009
O	      4.24378      6.44773      4.36933        -0.109819      0.037138     -0.105927
O	      4.19696      4.27019      6.56433        -0.008582     -0.017025     -0.110378
O	      6.28337      6.45812      6.47853         0.044036      0.014348     -0.032110
O	      6.09855      4.33444      8.61448         0.021426      0.038184      0.009674
O	      8.41331      6.61607      8.42118        -0.048044     -0.031522      0.054249
O	      2.18581      6.47517      6.35304        -0.051438      0.009605     -0.018676
O	      4.22084      8.57912      6.41474         0.024809      0.009043     -0.030108
O	      4.23054      6.38097      8.47230         0.005405      0.014816      0.053778
O	      6.48760      8.52761      8.57532        -0.151533     -0.020381      0.005205
O	      6.26676      6.34633     10.67499        -0.028021      0.005245      0.034617
O	      8.43921      8.63989     10.52620        -0.004076     -0.027108      0.087194
