# total energy = -246.53178902 eV
 
CRYSTAL
PRIMVEC
0.011085 6.434425 6.394887 
6.437416 -0.016361 6.421932 
4.273132 4.289476 0.007554 
PRIMCOORD
36 1
Li	      6.33065      2.22485      4.32383        -0.048151      0.040492      0.077758
Li	      4.31864      6.41072      2.17785        -0.006293      0.015437      0.048727
Li	      8.48210      4.36484      8.47541        -0.048045      0.072690     -0.007399
Li	      6.39641      6.34641      4.35736         0.000623     -0.018636     -0.026665
Li	      4.36673      4.31921      4.40236         0.003350      0.004753     -0.010671
Li	      8.48007      6.45034      6.37950         0.028046      0.015083     -0.070814
Li	      6.35150      4.42415      6.44877        -0.032294      0.037564      0.027168
Li	      4.43641      6.28627      6.32540         0.010253     -0.072964     -0.014571
Li	      6.53890      6.30863      8.37473         0.008642     -0.070858     -0.007613
Sc	      4.24951      2.17003      2.18233        -0.021814     -0.040237      0.138597
Sc	      8.47265      4.33168      4.36693         0.008020      0.004577     -0.063516
Sc	      0.09790      4.21067      4.21703         0.023589     -0.112586     -0.120224
Sc	      4.33441      4.22578      8.46715         0.072089     -0.137040      0.028360
V	      6.41525      0.15490      6.44525        -0.027819      0.173966     -0.068174
V	      2.18234      6.42625      4.25047         0.006980     -0.006794     -0.017285
Cr	      2.12620      0.02355      2.14237         0.071397      0.000199      0.033107
Fe	      6.53720      8.36850      6.35096        -0.056374      0.143941     -0.050481
Ni	      2.14183      2.16211      0.02968        -0.049456      0.022016     -0.049934
O	      2.18415      2.02851      2.05702        -0.009854     -0.004287      0.122342
O	      4.37945      4.26273      2.01039        -0.043521      0.032987     -0.097042
O	      4.32686      2.04626      4.20197        -0.001570      0.031646     -0.005236
O	      6.45014      4.26628      4.16417         0.004487     -0.007420     -0.014455
O	      6.47285      1.94377      6.42553        -0.096938     -0.210073      0.021804
O	      8.69878      4.22143      6.43579         0.092409      0.164770      0.011152
O	      2.14079      4.33702      4.36170         0.004996     -0.051236      0.002701
O	      4.13948      6.47092      4.34063         0.231866      0.030298     -0.032667
O	      4.22507      4.25508      6.44715         0.116208     -0.027380     -0.010329
O	      6.40535      6.50251      6.41151         0.053656     -0.207580     -0.050710
O	      6.37147      4.29675      8.60219         0.046054     -0.023512     -0.037467
O	      8.50628      6.47314      8.73098         0.020592     -0.032598     -0.212061
O	      2.03567      6.45566      6.39487        -0.103548     -0.056415      0.154828
O	      4.32385      8.75849      6.40142         0.049680      0.053725      0.060418
O	      4.18933      6.43096      8.58737        -0.006487      0.037985     -0.020370
O	      6.42505      8.69424      8.40633        -0.068088      0.018441      0.086001
O	      6.49332      6.37185     10.83536        -0.167529      0.077540      0.179003
O	      8.62870      8.56904     10.70416        -0.065158      0.101505     -0.004283
