# total energy = -249.82059664 eV
 
CRYSTAL
PRIMVEC
0.055429 6.374511 6.415949 
6.413911 0.014101 6.457421 
4.277215 4.278874 0.008060 
PRIMCOORD
36 1
Li	      6.58562      6.42569     12.75020         0.026492      0.023425      0.003234
Li	      8.44558      2.12317      6.42091        -0.029686     -0.000327      0.009951
Li	      6.39625      4.26010      2.18138        -0.021130     -0.013103     -0.019860
Li	      4.29069      2.13353      2.20076         0.025267     -0.044570     -0.036971
Li	      6.51537      8.47270     10.77001         0.027474     -0.027550      0.038231
Li	      2.20716      2.08937      4.21872        -0.032947     -0.031239     -0.026517
Li	      4.34327      2.08704      6.39154         0.023282     -0.047890      0.010885
Li	      8.53609      6.47730     10.79593         0.028359      0.026264     -0.024605
Li	      8.48075      8.53616      8.75351         0.003092      0.028616      0.052791
Sc	      4.30044      6.37300      2.15495        -0.006572     -0.003985     -0.035909
Sc	      2.22892      4.19013      2.07490         0.019202     -0.004561     -0.047657
Sc	      6.42362      4.24990      6.37448         0.001759      0.018361      0.030493
Sc	      4.19629      6.48121      6.48479        -0.010808      0.031832      0.026778
V	     10.71150      8.56896     10.77050        -0.038694      0.058447      0.000063
V	      6.49926      6.50427      8.58948         0.003497     -0.048729      0.028306
Cr	      2.17023      4.27287      6.43051         0.017770     -0.004086     -0.008776
Fe	      4.35133      6.39370     10.69726        -0.063517      0.141553      0.006512
Fe	      4.33512      4.01323      4.27329        -0.030200      0.105165      0.008454
O	      2.07057      2.18660      2.14177        -0.033122      0.030143      0.014479
O	      4.26412      4.29712      2.32844        -0.004019      0.030586     -0.078642
O	      4.29624      2.10869      4.28971        -0.012057     -0.151016     -0.007855
O	      6.40643      4.25606      4.32452        -0.004073     -0.004655      0.013367
O	      6.39174      2.22453      6.55355         0.000569      0.008183      0.002377
O	      8.49396      4.31787      6.41006        -0.033065     -0.024552      0.030877
O	      2.14966      4.24283      4.31999         0.056581     -0.005484      0.026949
O	      4.26906      6.52819      4.31735         0.005122     -0.040797     -0.013094
O	      4.25883      4.32175      6.26205        -0.020809      0.016135      0.028700
O	      6.37844      6.44172      6.49002        -0.011782      0.039046     -0.022639
O	      6.48405      4.31649      8.58744         0.018698     -0.011383      0.001657
O	      8.53704      6.34213      8.63147         0.019288     -0.022843     -0.012985
O	      2.19422      6.27911      6.46085         0.033216     -0.008998     -0.035842
O	      4.43437      8.53175      6.37644         0.027509     -0.025261      0.045560
O	      4.44057      6.39897      8.62890        -0.007808     -0.018113     -0.064289
O	      6.51971      8.42598      8.42775        -0.033091      0.063664     -0.004529
O	      6.39809      6.33899     10.68605         0.044946     -0.009684      0.016957
O	      8.70871      8.67827     10.74964         0.011257     -0.072595      0.043549
