# total energy = -242.22515337 eV
 
CRYSTAL
PRIMVEC
0.013976 6.447803 6.422620 
6.369628 0.064098 6.373818 
4.272498 4.291908 0.015735 
PRIMCOORD
36 1
Li	      8.41373      2.22600      6.39030        -0.009196     -0.003351     -0.010792
Li	      6.47148      8.56831     10.66030         0.025145     -0.060778     -0.005272
Li	      6.26313      2.40067      8.43578        -0.027436     -0.002157      0.003519
Li	      6.39414      4.17630      6.56772        -0.015990     -0.039532     -0.004072
Li	      6.38976      4.38270     10.50879        -0.002632      0.016677     -0.028109
Li	      8.47542      6.55470     10.49190         0.022816     -0.003410     -0.033172
Li	      6.43188      8.62024      6.51638         0.014452     -0.005790      0.046492
Li	      8.54328      8.48861      8.51227        -0.046522     -0.016901     -0.020963
Li	      6.53566      6.40704      8.65387        -0.041329     -0.058148      0.071159
Sc	      6.44662      6.62206     12.74442         0.034568     -0.058864     -0.055466
Sc	      4.42895      8.58987      8.54270         0.031056     -0.005312     -0.030596
Sc	      4.28627      4.31392      4.31466        -0.057461      0.091125      0.039542
Sc	      4.20502      6.45380      6.46165         0.025959      0.042766     -0.056624
V	      8.54905     10.57953     10.71346         0.073215     -0.219121      0.009796
V	      6.37093      6.48253      4.31283        -0.087221      0.093013     -0.007347
Cr	      8.39360      4.40755      8.49339         0.047416     -0.004253      0.015978
Ni	      2.14525      6.44787      8.52564        -0.019226      0.075589     -0.006313
Ni	      4.29568      2.23821      6.47061        -0.094496      0.005585     -0.031074
O	      2.15536      2.20494      2.34160         0.024289      0.077896     -0.001709
O	      4.23872      4.25324      2.15232        -0.097781     -0.011729      0.025284
O	      4.14919      2.13392      4.28209         0.008711     -0.016366     -0.072115
O	      6.45497      4.45606      4.19660        -0.010297      0.043734      0.098941
O	      6.34351      2.16354      6.35821         0.089028     -0.002542      0.010903
O	      8.53284      4.38476      6.33483        -0.004480     -0.099918     -0.021287
O	      2.18623      4.20280      4.13434         0.031456      0.011380      0.003947
O	      4.37240      6.39341      4.36310         0.005343     -0.001300      0.016300
O	      4.24708      4.34862      6.34327         0.011720      0.095754     -0.016955
O	      6.39091      6.52142      6.15131        -0.055856      0.033352     -0.026822
O	      6.48309      4.36483      8.51424        -0.011992      0.016574     -0.008561
O	      8.50126      6.38594      8.50808         0.011446     -0.015922      0.086070
O	      2.15202      6.49449      6.43428         0.005275     -0.014743     -0.043696
O	      4.27017      8.56414      6.51909         0.029605      0.015432      0.051577
O	      4.22936      6.50954      8.63853         0.105295      0.024761      0.001689
O	      6.38960      8.70552      8.59697         0.005532     -0.110503      0.007243
O	      6.19266      6.51926     10.70185        -0.028181     -0.028292     -0.009028
O	      8.48123      8.84415     10.69054         0.007773      0.135295      0.001534
