# total energy = -234.20283414 eV
 
CRYSTAL
PRIMVEC
0.011860 6.355494 6.196338 
6.633858 -0.009138 6.217787 
4.414061 4.242496 0.002472 
PRIMCOORD
36 1
Li	      8.64205      2.22791      6.21365        -0.000847     -0.066260      0.003376
Li	      6.43852      4.12782      2.16081         0.021293      0.033030      0.009814
Li	      4.54903      2.22603      2.13883         0.001537     -0.080877      0.029395
Li	      6.77473      8.43245     10.34197         0.050700      0.031336     -0.031286
Li	      6.57334      2.22554      8.08017         0.047677     -0.016246     -0.018379
Li	      8.76116      4.28296      8.13350        -0.041209     -0.029592      0.074186
Li	      4.65393      2.05144      6.26491        -0.025444      0.086788     -0.040385
Li	      6.68647      4.08171      6.28521        -0.040872      0.012129     -0.048410
Li	      4.52044      4.14053      8.20453         0.054197      0.019115     -0.025291
Sc	     10.96510      4.34655      6.34406         0.067915      0.068065      0.021348
Sc	      6.65165      4.24429     10.22297         0.025092      0.074192     -0.085965
Sc	      8.89190      6.40481     10.20274        -0.012511     -0.015023     -0.032545
Sc	      6.69973      8.44197      6.37618         0.025953     -0.007739      0.098010
V	      2.30824      1.98159      4.03235         0.017878     -0.130762     -0.184377
V	      4.38368      6.37550      6.42206         0.033062      0.087862      0.070149
Cu	      8.81028     10.47500     10.34826         0.050880      0.051051     -0.141971
Ni	      6.74261      6.32500      8.24734        -0.060896      0.049984     -0.034846
Ni	      4.38350      4.26880      4.08466         0.002210     -0.097861      0.034709
O	      2.10406      2.16747      2.33142        -0.029986     -0.074064      0.113350
O	      4.42534      4.21465      2.10920        -0.076916      0.018141     -0.157932
O	      4.09101      2.08003      4.18453        -0.102917     -0.036081      0.047793
O	      6.47971      4.45378      4.14657        -0.012654      0.097546      0.041904
O	      6.64872      2.06649      6.14850        -0.005187     -0.034477     -0.013756
O	      8.93280      4.19571      6.06979        -0.043074      0.016575      0.029364
O	      2.21042      4.16725      4.16741        -0.086763     -0.020766      0.012217
O	      4.43186      6.38975      4.27423        -0.003152      0.075092     -0.002286
O	      4.34710      4.41716      6.14803        -0.080066     -0.060865      0.122531
O	      6.38836      6.37790      6.09825         0.060853      0.076286     -0.036738
O	      6.66473      4.28636      8.25032         0.028846     -0.087862      0.057257
O	      8.80766      6.36138      8.23542         0.142231     -0.056768      0.041541
O	      2.35085      6.32782      6.22938        -0.039315      0.097521     -0.052054
O	      4.52910      8.39753      6.21734        -0.064177      0.029886     -0.070711
O	      4.47179      6.36508      8.22323        -0.001255     -0.138200     -0.000727
O	      6.61789      8.38754      8.34171        -0.012436      0.106516     -0.007537
O	      6.84686      6.29984     10.36429         0.131734     -0.020521      0.171075
O	      8.97412      8.47951     10.31073        -0.022380     -0.057151      0.007176
