# total energy = -234.71791125 eV
 
CRYSTAL
PRIMVEC
-0.053380 6.273106 6.451930 
6.441960 -0.008572 6.406728 
4.303820 4.162511 -0.014039 
PRIMCOORD
36 1
Li	      2.18408      8.33851      6.37533         0.074125      0.020306      0.050195
Li	      4.29339      8.34243      8.52965         0.052715      0.016572     -0.011182
Li	      6.52956      8.24499     10.65851         0.031150      0.071937      0.029918
Li	      2.15786      4.06599      2.14395        -0.012615     -0.030352     -0.020636
Li	      6.39388      4.11515      6.37826        -0.045099     -0.036275     -0.076764
Li	      2.05296      6.38094      4.48820         0.077478     -0.009782      0.135536
Li	      6.44134      8.36851      6.55584         0.033541     -0.018185      0.023993
Li	      8.45265      8.33969      8.69020        -0.011476     -0.006036      0.060259
Li	      6.39070      6.41176      8.65698         0.016618      0.012105      0.003975
Sc	      6.41422     10.28978      8.57955        -0.026838      0.124121      0.013055
Sc	      6.47231      2.13832      8.48408        -0.013792     -0.034829     -0.076293
Sc	      6.37058      4.31616     10.65503         0.073174      0.000794     -0.005331
Sc	      4.30852      6.29335      6.52715         0.043093     -0.070378     -0.007535
V	      4.20000      4.08549      4.28767         0.086782     -0.078051     -0.110542
V	      8.43354      6.12277      6.50466        -0.056319      0.028784     -0.064976
Cu	      0.02092      6.22096      6.41934         0.001620     -0.009088      0.109735
Cu	      4.30971      6.29856     10.63787         0.005970      0.071569     -0.065159
Ni	      2.12563      2.08599      4.23308        -0.050330     -0.032294     -0.001305
O	      2.05661      2.05872      2.16694        -0.081888      0.000993     -0.156199
O	      4.28403      4.15865      2.19993        -0.010029     -0.008829     -0.042730
O	      4.19482      2.08807      4.40485         0.031693      0.051704      0.072312
O	      6.10591      4.20342      4.25269        -0.140733     -0.079624     -0.013296
O	      6.16298      1.95166      6.42969        -0.053688      0.019554     -0.025582
O	      8.44381      4.34812      6.28994        -0.074779      0.002940     -0.047750
O	      2.33446      4.17162      4.23909        -0.127861      0.097166     -0.058220
O	      4.28177      6.21933      4.29652        -0.093645      0.074368      0.033531
O	      4.29368      4.03741      6.25748        -0.034828      0.004117      0.024017
O	      6.56409      6.26489      6.33809        -0.081084      0.001546      0.074270
O	      6.44290      4.13523      8.62223        -0.030314     -0.000805      0.065322
O	      8.55485      6.26516      8.25839        -0.011723     -0.006126      0.076957
O	      2.29751      6.28262      6.51038         0.164514      0.009800     -0.018101
O	      4.34179      8.36416      6.36438         0.037265     -0.075421      0.012680
O	      4.22764      6.27330      8.58111         0.025120      0.008443     -0.062058
O	      6.40810      8.34365      8.59449         0.036158     -0.038889      0.035397
O	      6.53596      6.29699     10.81700         0.134853      0.057241     -0.009275
O	      8.62643      8.51112     10.73066         0.031170     -0.139095      0.051783
