# total energy = -234.27814673 eV
 
CRYSTAL
PRIMVEC
0.033668 6.571887 6.288429 
6.416070 0.002089 6.320241 
4.293494 4.419527 -0.014668 
PRIMCOORD
36 1
Li	      4.45253     10.91293      6.39247        -0.007314     -0.008834     -0.038913
Li	      2.19869      8.66580      6.37779         0.028051      0.011732      0.019255
Li	      6.27265      4.55510      2.19828         0.024777     -0.019452     -0.084010
Li	      4.28009      2.37461      2.05988         0.015982      0.040699      0.003445
Li	      8.35834      4.40073      4.23969         0.066886     -0.022006      0.025163
Li	      6.42416      2.42507      4.18924        -0.021754     -0.042197      0.035478
Li	      4.44228      6.39644      2.11119        -0.005807     -0.000705      0.005590
Li	      6.48232      6.31705      4.03147         0.039228     -0.001913     -0.014309
Li	      4.50988      4.40496      4.06426        -0.041038     -0.004539      0.002390
Sc	      2.28440      4.24340      2.14290        -0.006611     -0.002458     -0.094683
Sc	      4.29775      6.67461      6.23436        -0.020710      0.012379     -0.069972
Sc	      8.57863      8.79541      8.42546         0.101353     -0.042270      0.031651
Sc	      6.40202      6.65511      8.45491         0.029972     -0.020141      0.088692
V	      4.38985      2.13962      6.07440         0.213036     -0.040403      0.294031
V	      2.15748      6.63804      4.24815         0.010679      0.055269     -0.017450
Cu	      6.44223      4.40084      6.20523         0.008078     -0.119772      0.167903
Cu	     10.72498      8.83641     10.52902        -0.093160     -0.016052     -0.055360
Cu	      6.39309      8.82930      6.28868         0.010151     -0.048211      0.059611
O	      6.44685      4.38041      4.29095        -0.017127      0.030628     -0.237076
O	      2.14275      2.28146      2.08533         0.000540      0.002967      0.022934
O	      4.25824      4.37581      2.09174         0.012180      0.003999      0.039523
O	      4.28136      2.16740      4.37174        -0.025782      0.008963     -0.345886
O	      6.13936      2.39428      6.32451        -0.066366      0.039986     -0.026298
O	      8.68833      4.76608      6.33936        -0.023835      0.007106     -0.022246
O	      1.98165      4.58296      4.22844         0.064943      0.019008      0.029848
O	      4.03735      6.43804      4.20425         0.052760     -0.120526     -0.043607
O	      4.06345      4.15579      6.33261         0.106834      0.011624     -0.094210
O	      6.50871      6.44240      6.30294         0.022356      0.031802     -0.130988
O	      6.42540      4.49033      8.37733        -0.009299      0.032778      0.038834
O	      8.52638      6.62776      8.45495        -0.025143      0.033425     -0.043841
O	      2.24305      6.69733      6.17265        -0.014414      0.012235      0.170620
O	      4.41865      8.70947      6.21410        -0.157489      0.015753      0.068685
O	      4.36140      6.44611      8.31339        -0.036568     -0.025647      0.054914
O	      6.48137      8.70995      8.33875        -0.027638      0.004220      0.056925
O	      6.70895      6.75322     10.49703        -0.066946      0.127873      0.052836
O	      8.73496      8.69108     10.50433        -0.140804      0.032678      0.050523
