# total energy = -240.16140731 eV
 
CRYSTAL
PRIMVEC
0.062634 6.543006 6.295888 
6.405548 0.100460 6.257567 
4.318949 4.384763 0.019077 
PRIMCOORD
36 1
Li	      2.18125      0.06233      2.14287         0.023533      0.030513     -0.022184
Li	      6.59201      8.89115     10.42850        -0.063626      0.014636     -0.021159
Li	      6.53437      2.56324      8.38375         0.035889      0.056736      0.018770
Li	      2.04598      4.21640      2.18425        -0.008061     -0.020299      0.004744
Li	      2.11998      2.20592      4.07644         0.011796     -0.030016     -0.018498
Li	      6.46944      4.41748      6.33163        -0.042868      0.068693     -0.027067
Li	     10.72803      8.71716     10.33955        -0.006240      0.010077      0.055328
Li	      2.28484      6.60304      4.18880        -0.014357     -0.021644     -0.041066
Li	      8.73407      8.78151      8.52875         0.029581      0.003029      0.000665
Sc	      4.37616      4.48108      4.03525         0.050949      0.012423     -0.004353
Sc	      2.16166      4.41012      6.22616         0.200661      0.071193     -0.099228
Sc	      4.30933      6.60590      6.22106        -0.019180     -0.148779      0.029647
Sc	      6.47659      6.49511      8.52868        -0.045143     -0.026730      0.025849
V	      6.40689      0.16903      6.22976        -0.060736     -0.044182     -0.018176
V	      8.65065      6.61093      6.32780        -0.108979     -0.055724      0.026062
Fe	      4.23227      2.16761      2.17093        -0.024891     -0.090266      0.116635
Co	      8.53991      2.29942      6.27606         0.057757     -0.064876     -0.256859
Cu	      8.34723      4.28017      4.21391         0.103556      0.009437     -0.014014
O	      2.27835      2.20400      2.00175        -0.047863     -0.030685     -0.276957
O	      4.36477      4.23018      1.92584         0.013548     -0.014154     -0.020047
O	      4.25814      2.26177      4.30771         0.026103      0.087318      0.021197
O	      6.42032      4.40873      4.18662        -0.258059     -0.012638      0.031846
O	      6.31952      2.10483      6.31287         0.238107      0.019088      0.015558
O	      8.75071      4.65561      6.34885         0.090894      0.032383      0.068455
O	      2.28496      4.41797      4.19708         0.038726      0.022361      0.047531
O	      4.34669      6.53704      4.20174        -0.043434     -0.004691      0.064264
O	      4.27933      4.41320      6.21014        -0.050944      0.037098     -0.043132
O	      6.50689      6.66434      6.33290         0.013401      0.017189      0.021372
O	      6.44157      4.52566      8.37420         0.017209      0.098356     -0.036987
O	      8.56000      6.74962      8.14137        -0.043325      0.037570      0.021076
O	      2.16417      6.54401      6.28917        -0.007022      0.057219     -0.012662
O	      4.37005      8.78691      6.32026        -0.256909     -0.027773     -0.046521
O	      4.37015      6.67884      8.30867         0.084011      0.006203     -0.152703
O	      6.32544      8.67067      8.38972         0.005747     -0.028282     -0.041842
O	      6.48134      6.59441     10.67720         0.029537      0.036245      0.069021
O	      8.57611      8.90477     10.60160         0.030631     -0.107027      0.515436
