# total energy = -240.61720071 eV
 
CRYSTAL
PRIMVEC
0.026683 6.381703 6.310118 
6.514672 0.009401 6.328673 
4.328664 4.251925 0.021279 
PRIMCOORD
36 1
Li	     10.60474      4.31505      6.28487         0.006221      0.019697      0.000529
Li	      8.68753      2.24813      6.33957        -0.005565     -0.041762      0.022973
Li	      4.54325      6.39426     10.63479         0.039708     -0.016939     -0.053669
Li	      6.45594      2.02021      4.29572        -0.015340     -0.037041      0.017525
Li	      2.24023      4.20133      2.05366         0.030653     -0.005346     -0.010337
Li	      4.26455      4.20347      4.20402        -0.005088     -0.017112      0.003048
Li	      8.71958      6.27335      6.34423         0.004952      0.026592      0.040162
Li	      6.56508      4.33007     10.47063         0.030973      0.008255     -0.076413
Li	      2.24015      4.20010      6.27805         0.063534     -0.045430      0.036180
Sc	      6.48367      4.24154      2.17826        -0.014682      0.020012     -0.011317
Sc	      6.69425      4.22401      6.22818        -0.062150      0.018841      0.015372
Sc	      2.05167      6.22728      4.28304        -0.116298      0.050994      0.060018
Sc	      4.39774      6.42759      6.23652         0.092047     -0.005338      0.012887
V	      4.31540      2.21865      2.15001         0.018302     -0.035955      0.083759
V	      8.73165      8.47855      8.50120        -0.063335      0.073341     -0.000372
Fe	      6.52273      2.10098      8.38327         0.038131     -0.048285      0.110225
Co	      6.51893      6.42506      8.47653         0.110055     -0.118083     -0.201979
Ni	      2.18252      2.22246      4.21427         0.023797     -0.029914      0.063503
O	      2.19497      2.11855      2.14765         0.062657      0.028259     -0.112363
O	      4.38348      4.23461      2.10910        -0.045977     -0.047781      0.011697
O	      4.29821      2.14569      3.97122         0.040805     -0.028418     -0.010940
O	      6.45413      4.32981      4.21956        -0.068617     -0.035623     -0.039047
O	      6.53927      2.15631      6.46764        -0.042740     -0.017428     -0.201594
O	      8.64452      4.26875      6.33561        -0.015708      0.004646      0.005644
O	      2.16414      4.24507      4.22979         0.011601      0.079709     -0.019593
O	      4.32971      6.39155      4.15765        -0.047635      0.025668      0.039466
O	      4.38217      4.32662      6.56552        -0.020709      0.016200     -0.031680
O	      6.49622      6.35937      6.36079        -0.027585      0.081296      0.156490
O	      6.37337      4.21673      8.41841         0.071116      0.150745      0.067872
O	      8.79479      6.50478      8.46614        -0.006922     -0.107372      0.017651
O	      2.32856      6.41478      6.31710        -0.046106     -0.008434      0.008294
O	      4.35420      8.47557      6.60775        -0.003226      0.055222     -0.074743
O	      4.31520      6.38932      8.40967        -0.044935      0.015768      0.014035
O	      6.48107      8.51936      8.44876         0.013206     -0.112906      0.035951
O	      6.55896      6.35467     10.48655         0.007916      0.082699     -0.005385
O	      8.64474      8.49092     10.30333        -0.013056      0.001223      0.026153
