# total energy = -238.59255017 eV
 
CRYSTAL
PRIMVEC
0.026777 6.431281 6.382936 
6.321447 -0.005516 6.415610 
4.207202 4.302146 0.003567 
PRIMCOORD
36 1
Li	     10.48495      4.31240      6.47770         0.013145     -0.011539     -0.070881
Li	      4.23337      8.35770      8.68684         0.008461      0.045478      0.012982
Li	      4.22035      6.56158     10.46638         0.048822      0.023971      0.107459
Li	     10.52618      6.42747      8.52895        -0.014950      0.005904      0.001625
Li	      6.37878      6.41364      4.30161        -0.046008      0.040620      0.053574
Li	      4.21392      2.15148      6.40647         0.042893      0.040211      0.053314
Li	      4.21488      6.44888      6.62025        -0.010862     -0.000949     -0.044897
Li	      4.19516      4.53189      8.53410         0.004594     -0.018835      0.027744
Li	      6.11572      6.43141      8.56136         0.041096     -0.005281      0.027946
Sc	      4.29642      4.17821      4.20790         0.051057      0.078517      0.046990
Sc	      6.31169      4.44620      6.43920        -0.012126      0.009320     -0.009162
Sc	      8.38908      6.46153     10.57110        -0.116680      0.018404     -0.042461
Sc	      6.32418      8.50132      6.59598        -0.010182     -0.013169     -0.010415
V	      2.10877      2.10831      0.06306         0.048815      0.007208     -0.062082
V	      6.30277      4.23975     10.58686        -0.014670      0.079127     -0.039818
Fe	      8.53119      4.32644      8.46169        -0.080076     -0.159041      0.060713
Cu	      6.34361      8.59447     10.56820         0.071262     -0.051299      0.013389
Ni	      2.20862      6.46524      8.55122        -0.135180      0.038339     -0.008562
O	      2.13051      2.17727      1.95018         0.000087      0.084823      0.063878
O	      4.17574      4.32570      2.17074         0.081295     -0.022772      0.011722
O	      4.35030      2.18029      4.30874        -0.100501     -0.034581      0.030921
O	      6.29251      4.46832      4.33286         0.012891      0.139107      0.078587
O	      6.56605      2.18502      6.22645        -0.074485      0.008907      0.060750
O	      8.41748      4.14151      6.50395         0.017760      0.019644     -0.125038
O	      2.07911      4.28988      4.28005         0.024163     -0.062399     -0.024974
O	      4.17456      6.63936      4.20862         0.035613     -0.109636     -0.010893
O	      4.20415      4.29992      6.34590         0.000529      0.000275      0.011000
O	      6.33750      6.48007      6.44726         0.017017     -0.000838     -0.016319
O	      6.42291      4.23828      8.58261        -0.026709     -0.023721     -0.019613
O	      8.47657      6.26125      8.56698        -0.007880      0.080973     -0.014222
O	      2.08295      6.48660      6.37529        -0.009789     -0.027056     -0.064540
O	      4.09125      8.55245      6.22456         0.033772     -0.023672     -0.011318
O	      4.17726      6.44495      8.54071         0.134093      0.023850      0.010429
O	      6.34006      8.63891      8.59483        -0.027531     -0.063141     -0.075892
O	      6.34939      6.08965     10.64934        -0.032228     -0.127774     -0.017671
O	      8.49581      8.51424     10.71250         0.032490      0.011025     -0.004265
