# total energy = -103.83727319 eV
 
CRYSTAL
PRIMVEC
2.123234 4.213130 2.110992 
4.154633 -2.078781 -2.075600 
0.003670 4.186787 -4.172892 
PRIMCOORD
16 1
Li	      2.13285      4.22316      2.07579        -0.000054      0.009063     -0.013939
Li	      4.20056      4.21410      0.03296        -0.002958      0.003282     -0.000897
Li	      4.14475     -0.00061     -4.12118        -0.004239     -0.012242      0.013323
Li	      4.20053      6.31084     -2.05164         0.000361     -0.001538     -0.005028
Ti	      2.09706      4.12812     -1.99595        -0.010260     -0.111010      0.096484
Ti	      4.18188      4.28181     -4.22248         0.018453      0.115087     -0.088191
Ni	      2.09647      2.09668      0.02350         0.004350     -0.001601      0.004002
Ni	      4.17872      2.12553     -2.06992        -0.000131      0.004762     -0.000339
O	      2.09853      2.20924     -2.05042        -0.091320      0.185802     -0.090257
O	      4.08771      4.21568     -2.15015        -0.087209      0.098710     -0.045982
O	      2.19182      4.19355     -4.06884         0.086031     -0.098624      0.044336
O	      4.17713      2.01386      0.00433         0.092716     -0.186344      0.089676
O	      4.16393      0.04080     -1.97742        -0.090119     -0.091804      0.172384
O	      2.11200      4.18168     -0.06835         0.087411      0.089725     -0.174831
O	      4.27661      2.20662     -4.14919         0.102170      0.048628     -0.105578
O	      2.00305      6.20297     -2.06962        -0.105200     -0.051898      0.104836
