# total energy = -244.71917205 eV
 
CRYSTAL
PRIMVEC
0.038319 6.473476 6.370349 
6.364869 0.048583 6.359743 
4.251218 4.316601 0.024808 
PRIMCOORD
36 1
Li	     10.52565      4.41566      6.35958        -0.027319      0.014358      0.037420
Li	      4.29012      0.20894      4.28895         0.029625     -0.071092     -0.002285
Li	      6.20034      2.15673      4.28822         0.117615     -0.020512      0.013661
Li	      2.19425      4.28401      2.13572         0.006314      0.010342     -0.034748
Li	      2.27047      2.26728      4.23287        -0.111132      0.071245     -0.006918
Li	      4.23472      4.13890      4.22860        -0.037943      0.062723     -0.028036
Li	      4.26433      2.12205      6.16213        -0.018408     -0.009312      0.099777
Li	      0.08556      4.31591      4.22913         0.017459     -0.053009     -0.044668
Li	      4.29628      6.49627      6.40012        -0.010142      0.015640      0.056070
Sc	      8.65408      8.76207     12.68253        -0.004673      0.053867     -0.043310
Sc	      6.35534      4.41790      6.20392        -0.025410     -0.023139      0.016663
Sc	      2.11129      6.40201      4.33497         0.113300     -0.023510     -0.006356
Sc	      6.32834      6.50514      8.53617         0.005711     -0.038796     -0.015732
V	      4.26541      6.40088      2.17897        -0.058510      0.036118      0.031849
V	      2.14604      4.29826      6.30915        -0.027090     -0.027256     -0.006952
Fe	      6.37948      4.33510      2.28067        -0.028192      0.027358     -0.210058
Fe	      8.52274      8.68343      8.56963         0.078677     -0.088279      0.060821
Co	      4.20468      2.27124      2.25811         0.026789     -0.112629      0.155114
O	      2.03431      2.06416      2.09285         0.158589      0.012227     -0.016210
O	      4.33670      4.44448      2.11136        -0.027812      0.040236      0.023673
O	      4.26103      2.18009      4.17365        -0.044598      0.013976     -0.352930
O	      6.34237      4.30490      4.19212        -0.028410     -0.029494      0.222015
O	      6.42047      2.28089      6.57151         0.001697      0.005734     -0.174646
O	      8.42989      4.29351      6.38362        -0.006970      0.041198     -0.073723
O	      2.14550      4.33550      4.35522         0.054460     -0.026739     -0.007388
O	      4.23958      6.52679      3.97989         0.004106      0.006574      0.114694
O	      4.20268      4.34667      6.47918         0.004311     -0.004329     -0.030451
O	      6.35262      6.49986      6.42181         0.048935     -0.008654     -0.027253
O	      6.28778      4.34686      8.43620         0.044445      0.041512     -0.020104
O	      8.55110      6.56806      8.54535        -0.079865     -0.017548      0.004724
O	      2.20891      6.47421      6.40829         0.001471     -0.008183      0.067894
O	      4.35648      8.64552      6.52151        -0.023219      0.031334      0.019133
O	      4.22879      6.40112      8.53017         0.070426      0.023511      0.034167
O	      6.48053      8.67345      8.43574        -0.143086     -0.003921      0.067089
O	      6.45594      6.49969     10.54632        -0.079657      0.044228      0.017951
O	      8.54840      8.57450     10.61115        -0.001495      0.014220      0.059054
