# total energy = -245.91596696 eV
 
CRYSTAL
PRIMVEC
0.040953 6.409692 6.370985 
6.438596 0.011865 6.399898 
4.271620 4.271590 0.028367 
PRIMCOORD
36 1
Li	      6.48011      0.13090      6.38340         0.061721      0.071603     -0.029870
Li	      2.06072      2.08764      0.05050        -0.032884     -0.015407     -0.032112
Li	      4.26031      2.16916      2.11185        -0.008307      0.013746     -0.036055
Li	      6.36108      2.11043      4.38428        -0.040434     -0.063886     -0.014544
Li	      4.31518      6.33777      2.11856         0.001893      0.001997      0.010379
Li	      4.30486      4.29156      4.24504        -0.032248      0.013955     -0.027291
Li	      4.41895      2.11194      6.32066        -0.016879     -0.022709     -0.004305
Li	      2.19641      6.41943      4.28808         0.042600      0.038990     -0.005459
Li	      4.26355      6.45951      6.35378         0.005346      0.063531      0.013868
Sc	      6.42370      6.36862      4.30616         0.005361      0.073236      0.012546
Sc	      4.25088      8.50831      4.37713         0.005938      0.011525      0.016655
Sc	      2.18815      4.36101      6.35466         0.048096      0.019472     -0.034866
Sc	      8.58229      8.47759      8.56045         0.000812     -0.044415      0.032674
V	      4.31782      0.06218      4.31962         0.060070     -0.070753      0.036620
V	      6.43796      6.43259      8.50779        -0.036996      0.045373      0.036369
Fe	      1.99435      0.10417      2.05964         0.033919     -0.100415      0.157024
Fe	      2.30676      4.29493      2.02743        -0.032434     -0.076437      0.091340
Fe	      6.39378      4.06370      6.37542         0.046131      0.182802     -0.023335
O	      2.16246      2.12369      2.17204        -0.002139      0.074383      0.021563
O	      4.25805      4.29668      2.14709         0.083406     -0.035292      0.018802
O	      4.24283      2.00642      4.28658        -0.015600      0.047217     -0.015420
O	      6.45539      4.28703      4.26843        -0.010670     -0.041098     -0.048046
O	      6.42026      2.22357      6.41400         0.001954     -0.239440     -0.002048
O	      8.48166      4.26576      6.43776        -0.025441     -0.006141     -0.057442
O	      2.15089      4.23479      4.20729         0.018262      0.045662     -0.021295
O	      4.33863      6.47853      4.27752         0.034738     -0.036728     -0.009967
O	      4.36641      4.27923      6.45189        -0.079733     -0.002417     -0.012348
O	      6.42313      6.43517      6.47382         0.004038     -0.043741     -0.036190
O	      6.48378      4.33078      8.46859         0.036921     -0.026872      0.063587
O	      8.46270      6.34428      8.55856         0.009416      0.042531     -0.009774
O	      2.19874      6.40774      6.53393         0.057226      0.015950     -0.168737
O	      4.43478      8.57978      6.35001        -0.010869      0.024950      0.066152
O	      4.35433      6.35834      8.63135        -0.084945      0.012362     -0.040343
O	      6.51251      8.58947      8.48426        -0.035090      0.051280      0.016066
O	      6.43623      6.40405     10.52701        -0.050514      0.017605      0.046139
O	      8.64553      8.65129     10.62504        -0.042664     -0.042421     -0.010338
