# total energy = -216.94125855 eV
 
CRYSTAL
PRIMVEC
-0.034158 6.343157 6.255578 
6.343157 -0.034158 6.255578 
4.206873 4.206873 -0.000847 
PRIMCOORD
36 1
Li	      6.24384      4.25859      2.11053        -0.018093      0.003871      0.058317
Li	      4.29714      6.25764      2.21458         0.072004     -0.061473      0.028706
Li	      2.11011      4.16260      2.18478         0.016393     -0.014957     -0.023190
Li	      1.96680      2.23919      4.17038        -0.077334      0.078567      0.000526
Li	      4.15388      4.25898      4.16996         0.018633     -0.017278      0.001273
Li	      4.15428      2.16903      6.22939        -0.005995      0.015491     -0.058667
Li	      0.13267      4.07333      4.17039         0.089427     -0.089370      0.001562
Li	      2.15523      4.11573      6.12534         0.062907     -0.070563     -0.029347
Li	      4.25026      6.30276      6.15514         0.015616     -0.014337      0.021549
Mn	      2.08467      8.43192      6.25497        -0.083768      0.007182     -0.090541
Mn	      6.32411      6.29405      8.34054        -0.005524      0.083320      0.089681
Fe	      4.20029      4.20986      0.05358        -0.124214      0.108831     -0.157212
Fe	      4.16475      2.16211      2.09216         0.140525     -0.133465      0.162014
Fe	      6.25076      4.24812      6.24776         0.134204     -0.139437     -0.162483
Fe	      2.27091      6.14197      4.16996        -0.123490      0.123247     -0.001180
Fe	      4.20302      4.21258      8.28635        -0.109123      0.124546      0.156971
Co	      4.20027      0.00573      4.17039        -0.303193      0.303580     -0.000028
Co	      6.26576      2.14711      4.16996         0.489391     -0.489254     -0.000696
O	      2.08719      4.27267      4.17397        -0.014633     -0.157063      0.004687
O	      4.14021      6.32568      4.16595         0.158263      0.016189     -0.003661
O	      2.19222      2.05281      1.92649        -0.070054      0.045814      0.055754
O	      4.22673      4.13899      1.98442        -0.020158      0.057010      0.088422
O	      4.29420      2.09741      4.07848         0.743939     -0.538453      0.137170
O	      6.31546      4.11868      4.26145         0.541023     -0.743178     -0.132498
O	      6.35885      2.04592      6.22296        -0.173129      0.216000     -0.975558
O	      8.43608      4.05092      6.23077         0.050924     -0.127334      0.246331
O	      4.27389      4.18614      6.35550        -0.052502      0.021594     -0.090905
O	      6.36006      6.22065      6.41344        -0.046819      0.069393     -0.056644
O	      6.21470      4.24138      8.29805         0.031833      0.003110      0.119385
O	      8.27891      6.39979      8.42239        -0.022192     -0.051589      0.004727
O	      1.97893      6.47712      6.17311         0.053833      0.019355     -0.005115
O	      4.13733      8.54133      6.29745        -0.004692     -0.034902     -0.121448
O	      4.32779      6.31995      8.36473         0.123171     -0.052714     -0.243357
O	      6.33280      8.39718      8.37254        -0.216525      0.172632      0.976380
O	      6.31377      6.40552     10.37282        -0.467000      0.802363      0.017807
O	      8.31634      8.40809     10.47826        -0.803646      0.463269     -0.018731
