# total energy = -216.56089580 eV
 
CRYSTAL
PRIMVEC
-0.003544 6.413139 6.384063 
6.084128 0.001162 6.379592 
4.070900 4.286985 -0.013791 
PRIMCOORD
36 1
Li	      6.02553      0.06752      6.29902         0.002152      0.061629     -0.036981
Li	      8.08660      8.60010     12.67619        -0.000462      0.003879     -0.072971
Li	      4.07419      8.53977      8.46130        -0.029235      0.003733     -0.080036
Li	      4.17201      6.37458     10.68033         0.029265     -0.006340      0.029188
Li	      6.07876      2.07992      4.31308        -0.009873     -0.020119      0.024766
Li	      6.10007      2.15730      8.38337         0.039574      0.010711     -0.085282
Li	      6.13288      4.16220      6.38249         0.007481     -0.036708     -0.006387
Li	      6.03532      4.39013     10.64798        -0.016986      0.083669      0.027745
Li	      6.06301      6.41462      8.63405        -0.023021      0.023479      0.057987
Mn	      8.10473      4.24864      8.45068         0.008171     -0.015084     -0.088821
Mn	      4.13016      2.12872      6.41496         0.185909     -0.083312      0.009161
Fe	      5.99043      4.29549      2.12566         0.069101     -0.003726     -0.051520
Fe	      6.09378      6.36006      4.19071         0.020124      0.021769      0.019288
Fe	      8.00777      6.51316     10.59259         0.115075      0.001329      0.021665
Fe	      6.04436      8.58376      6.43207        -0.034468      0.024343     -0.065946
Fe	      4.08891      6.49887      6.39902        -0.051409     -0.093548      0.079013
Fe	      4.18255      4.31687      8.58837        -0.117420      0.006072      0.018370
Cu	      4.08639      4.25532      4.21006         0.077408     -0.076521     -0.065385
O	      6.16724      6.39571     10.62720        -0.143027      0.015365      0.023540
O	      2.02828      2.03947      2.22453         0.004088      0.053599     -0.043641
O	      4.01415      4.23411      2.04515        -0.168740      0.008296     -0.132786
O	      3.99816      2.14386      4.48032         0.081916     -0.024362      0.094378
O	      6.03655      4.35684      4.13726         0.114220     -0.063410      0.127789
O	      5.96493      2.16897      6.36545        -0.198429     -0.015194      0.028893
O	      8.09921      4.49797      6.47880        -0.009462      0.112905      0.025251
O	      2.10895      4.26708      4.19472        -0.134905     -0.035442     -0.000927
O	      4.06369      6.33967      4.39630        -0.051950      0.034420     -0.058231
O	      4.02721      4.17152      6.50437         0.016595     -0.001377      0.125771
O	      6.12098      6.52499      6.30131         0.077601     -0.018540     -0.013535
O	      6.15391      4.28754      8.50824         0.180052     -0.009388      0.011904
O	      8.13965      6.52590      8.44391         0.004544     -0.067957     -0.053923
O	      2.07191      6.32967      6.34742        -0.014308      0.006460     -0.007597
O	      4.10614      8.43658      6.36934        -0.039805      0.047590     -0.052140
O	      4.01615      6.32445      8.40014         0.018986      0.074274      0.033929
O	      6.12577      8.68639      8.41382        -0.023109     -0.065630      0.064246
O	      8.13244      8.47841     10.53682         0.014345      0.043134      0.093229
