# total energy = -216.51457166 eV
 
CRYSTAL
PRIMVEC
0.014230 6.258386 6.273438 
6.212261 0.026517 6.260650 
4.161792 4.183440 -0.002007 
PRIMCOORD
36 1
Li	      2.13395      8.26190      6.26031         0.038002      0.012666     -0.001046
Li	      2.10446      6.23326      8.29094         0.058074     -0.012246     -0.023568
Li	      8.35349     10.40870     10.46608         0.038628      0.083332     -0.022522
Li	      8.28480      4.22774      8.31271        -0.045093      0.032351      0.003902
Li	      6.27726      4.24378      6.28060         0.013997      0.016797      0.036930
Li	      2.08541      6.28474      4.32952         0.031337      0.020901      0.018581
Li	      2.10224      4.24056      6.28800        -0.015441     -0.037317      0.033589
Li	      3.97165      6.26190      6.30676        -0.075656     -0.048573      0.006561
Li	      6.22140      6.25618      8.29185        -0.003619     -0.001418     -0.069547
Mn	      4.11308      4.19154      4.19296        -0.389556      0.403543      0.042864
Mn	      8.29233      6.25721      6.27928        -0.223162      0.211505      0.005614
Fe	      0.11299      6.23135      6.30938        -0.143214     -0.074768      0.012699
Fe	      4.16432      8.14953      8.26812         0.037912      0.080879      0.103471
Fe	      6.37285      8.40269     10.38372        -0.035756     -0.210767      0.070739
Fe	      6.27145      2.15647      8.33033        -0.102350      0.068943      0.130921
Fe	      6.21651      6.24508      4.21812         0.017501     -0.131450      0.058086
Fe	      6.23820      4.29809     10.42638        -0.181742     -0.215903      0.112056
Ni	      4.12299      4.26947      8.28673         0.001478      0.056246      0.028016
O	      2.09168      2.09578      2.18491         0.002319      0.001319     -0.020202
O	      4.12655      4.25261      2.19884         0.009997     -0.187804     -0.354034
O	      4.14461      2.16041      4.20496         0.091009     -1.581313      0.077162
O	      6.09038      4.15213      4.20237         0.379082      0.163814      0.005877
O	      6.13568      2.08736      6.26762         0.037556      0.073090     -0.105554
O	      8.39835      4.38571      6.28356         0.018032     -0.077904     -0.036034
O	      2.05846      4.09786      4.18485        -0.064140      0.031244      0.013284
O	      4.18047      6.24543      4.14507         0.195680      1.473825     -0.079729
O	      4.13043      4.05775      6.14658         0.026040     -0.122562      0.163588
O	      6.40260      6.23469      6.19133         0.165782      0.004530     -0.008775
O	      6.18945      4.14657      8.45048         0.182256     -0.044501     -0.077261
O	      8.37324      6.39614      8.15957         0.049507     -0.252523     -0.111852
O	      1.98577      6.27827      6.30449         0.058388      0.013332      0.010087
O	      4.13552      8.40125      6.28045        -0.032843      0.024320     -0.108480
O	      4.15915      6.28467      8.31178        -0.011398      0.133835      0.050840
O	      6.17204      8.34324      8.45065        -0.153550     -0.009003     -0.079265
O	      6.25940      6.28089     10.50965        -0.002735      0.152361      0.030583
O	      8.31594      8.40921     10.40188         0.027678     -0.050780      0.082421
