# total energy = -199.78259466 eV
 
CRYSTAL
PRIMVEC
-0.025828 6.225240 6.163714 
6.204349 -0.000087 6.137874 
4.131837 4.128730 0.004346 
PRIMCOORD
36 1
Li	      6.11246      0.08059      6.11421         0.010554     -0.023588     -0.006154
Li	      2.05498      0.06686      2.07376        -0.024264     -0.028081     -0.002996
Li	      4.05994      2.06432      2.05451        -0.012174      0.004937     -0.001142
Li	      4.16533      6.22680     10.29592         0.076511     -0.023555     -0.036850
Li	      6.23381      2.11430      8.11621        -0.000503      0.002178     -0.029714
Li	      8.23449      4.07890      8.10702         0.027838     -0.044773      0.027290
Li	      6.33927      4.03443      6.20310         0.016076     -0.042365      0.013695
Li	      6.16890      4.26965     10.17770        -0.012919      0.077701      0.003113
Li	      6.17863      6.15232      8.28854        -0.028940      0.009078      0.014100
Mn	      4.15021      4.12499      4.02168        -0.011057     -0.029845     -0.115741
Mn	      6.11127      8.27149      6.21928        -0.087276      0.105613      0.023581
Mn	      4.20409      4.18172      8.21131         0.041690      0.120435      0.124131
Co	      4.12294      6.18764      6.18317         0.093947      0.063155      0.067844
Cu	      2.05408      2.03904      3.99757         0.025959      0.100142      0.210273
Cu	      8.23246      6.22082     10.19739        -0.124709      0.011831      0.118451
Ni	      2.03963      2.13746      0.10689         0.076976     -0.137008     -0.151232
Ni	      6.17122      8.25746     10.25836         0.018422      0.117131     -0.202455
Ni	      8.34626      6.05215      6.20443         0.010977      0.184724      0.130715
O	      6.03505      4.16345      8.18550        -0.090964     -0.003281     -0.036153
O	      6.28098      6.28323     10.26463         0.078397     -0.237182     -0.026468
O	      2.05313      2.06293      2.09324        -0.006167     -0.006709     -0.000901
O	      4.08571      4.14242      2.23602        -0.001110      0.025726      0.155486
O	      4.12421      2.20403      4.16006        -0.160424      0.013040     -0.075255
O	      6.02158      4.13579      4.12480        -0.089762      0.030619      0.006036
O	      6.23645      2.05795      6.07044        -0.039793      0.006588      0.247515
O	      8.28832      4.10583      6.11255        -0.033127     -0.058729      0.024893
O	      2.12953      4.18836      4.21997         0.104974     -0.093959     -0.075238
O	      4.10398      6.06890      4.23875        -0.012876      0.062813     -0.087154
O	      3.98264      4.20439      6.18753        -0.010700     -0.012881     -0.000213
O	      6.09318      6.35764      6.04734        -0.044259     -0.079048      0.001079
O	      8.26085      6.38482      8.22431        -0.010071     -0.178083     -0.115827
O	      2.18309      6.14025      6.10092         0.049834     -0.022239     -0.039444
O	      4.19364      8.11520      6.16820         0.078824     -0.025485      0.016821
O	      4.13444      6.09098      8.09843        -0.049452      0.037594     -0.041327
O	      6.27194      8.29471      8.09841         0.059015      0.013582     -0.025581
O	      8.23266      8.26082     10.14584         0.080551      0.059926     -0.115178
