# total energy = -199.03597383 eV
 
CRYSTAL
PRIMVEC
0.041087 6.285026 6.111370 
6.187126 0.013867 6.138660 
4.129238 4.212179 0.004822 
PRIMCOORD
36 1
Li	      6.19440      6.27009     12.13275         0.020227      0.020228      0.025636
Li	      4.13302      0.13337      4.08789        -0.015932     -0.047890     -0.019972
Li	      6.09797      2.08050      4.10994        -0.067343      0.015543     -0.071815
Li	      6.24985      6.22864      4.20857         0.027325     -0.054829      0.031052
Li	      4.16154      4.13701      4.13581         0.001940     -0.011170     -0.115390
Li	      4.07624      2.16719      5.97730         0.001556     -0.021941     -0.045799
Li	      6.26120      4.27737     10.21964         0.005615      0.036036      0.041974
Li	      4.23176      6.26261      6.09701         0.000044      0.054457      0.001429
Li	      6.19262      6.29736      8.16204        -0.007030      0.079030     -0.022707
Mn	      2.14159      8.36469      6.07343         0.056874      0.074899      0.034956
Mn	      0.04096      2.11254      2.07549         0.281214     -0.355220     -0.090478
Mn	      8.24561      6.32801     10.20717        -0.120809      0.022001      0.103791
Co	      6.13721      4.16313      2.17477        -0.017708      0.050996      0.514796
Cu	      2.12751      4.21561      2.07503         0.192761      0.010189      0.138858
Cu	      6.17844      4.26863      6.07050         0.044922      0.269227      0.016847
Cu	      4.15591      4.27782      8.17194        -0.215205      0.185200      0.114457
Ni	      4.10533      2.05972      2.09844        -0.133237     -0.021947     -0.061150
Ni	      6.24105      8.32116      6.09403        -0.176787      0.017873      0.041741
O	      6.36722      4.04902      8.16771        -0.056536      0.057291     -0.049548
O	      3.90378      6.20433      8.18537         0.180806     -0.212233      0.057536
O	      6.39238      6.32842     10.12387         0.111297     -0.051755      0.067775
O	      2.02233      1.89851      1.97695        -0.253753     -0.179385     -0.035296
O	      4.17745      4.34186      2.01394        -0.160979      0.226612     -0.088460
O	      4.10320      2.10011      3.97067        -0.044689     -0.019586      0.412606
O	      6.16364      4.20480      4.10416        -0.070913     -0.292157     -0.890051
O	      6.32018      2.15690      6.24853         0.033715     -0.024399      0.064645
O	      8.23229      4.02689      6.23123         0.060971     -0.068490     -0.042559
O	      2.10577      4.39525      4.05560         0.041399      0.035221     -0.109298
O	      4.06366      6.32681      3.94703         0.011145      0.038923      0.062162
O	      4.17226      4.20301      6.22177        -0.038549      0.007952      0.152330
O	      6.23256      6.28111      6.17948        -0.023394      0.021144      0.054829
O	      8.44147      6.49579      8.24974        -0.140749      0.026790     -0.062315
O	      2.09145      6.37985      5.98423         0.007200      0.035420      0.147026
O	      4.05961      8.38425      6.24307        -0.091982     -0.031577     -0.300446
O	      6.06650      8.54659      8.09756         0.571081      0.175777      0.044783
O	      8.31121      8.30709     10.29607        -0.014499     -0.068230     -0.123946
