# total energy = -100.87944036 eV
 
CRYSTAL
PRIMVEC
0.001525 2.232130 2.225362 
3.882867 0.016361 -0.019041 
0.032055 9.693231 -9.654973 
PRIMCOORD
16 1
Li	      3.14173      0.96207     -0.94744        -0.019421      0.004818     -0.011526
Li	      1.53412      2.78039     -0.54230        -0.026156     -0.003812      0.003368
Li	      0.11514      4.96937     -0.50547         0.005536     -0.011815      0.002094
Li	      2.13928      4.31364     -2.08595        -0.010387     -0.006998      0.011072
Ti	      2.08919      7.17404     -4.73781         0.005476      0.132947      0.097943
Ti	      1.17041     10.38148     -8.09525        -0.081757      0.123275     -0.135381
Ni	      0.16648      6.73231     -2.28780        -0.000189      0.053371     -0.029202
Ni	      0.13935      7.32026     -7.26593        -0.010627     -0.025758      0.033589
O	      0.15071      7.08577     -4.91578         0.008623     -0.019311      0.054750
O	      2.08932      9.08043     -4.65528         0.000188     -0.225025      0.072691
O	      0.16950      4.78037     -2.56285         0.000327     -0.120329      0.128716
O	      2.10186      7.20713     -2.82483         0.002812      0.076076     -0.195057
O	      0.22158      1.79277      0.45368         0.246777     -0.278327      0.267969
O	      2.10829      4.48157     -0.01853         0.002854      0.011407     -0.010824
O	      0.19351      9.26990     -6.99042         0.200346      0.335563     -0.333502
O	      2.14973      9.37387     -9.31684        -0.324401     -0.046082      0.043300
