# total energy = -199.96141878 eV
 
CRYSTAL
PRIMVEC
0.040006 6.040440 6.287863 
6.402844 0.028356 6.300929 
4.259309 4.028596 0.025684 
PRIMCOORD
36 1
Li	     10.60738      4.07825      6.35127         0.012866     -0.032860     -0.004688
Li	      8.48916      2.10838      6.25825         0.009333      0.011138      0.032782
Li	      4.31398      2.04204      2.20715        -0.038156      0.024703     -0.003476
Li	      6.39539      2.04405      4.21382         0.006965     -0.005416      0.084583
Li	      2.21092      1.98947      4.20665        -0.005943      0.094336     -0.035744
Li	      4.19705      3.97126      4.23058        -0.078689     -0.011686     -0.055048
Li	      6.51065      4.02114      6.29329         0.101015      0.039149     -0.041574
Li	      8.55502      6.11650     10.47045         0.023902     -0.034067      0.004156
Li	      8.47075      8.05939      8.44874        -0.043778     -0.012399      0.036928
Mn	      6.45029     10.02919      8.43139         0.229308      0.035748     -0.056619
Mn	      0.07223      2.01099      2.06138         0.154434      0.022822      0.222284
Mn	      4.23325      6.01198      6.23555        -0.013775      0.037014     -0.132641
Co	      2.16686      4.03158      2.14014        -0.166351     -0.147621     -0.576773
Cu	      8.54178      4.05032      4.25373        -0.059691      0.129019     -0.060858
Cu	      4.37163      2.04483      6.29598        -0.001216     -0.107973     -0.069251
Cu	      6.41411      4.06293     10.46944         0.059745     -0.028448      0.174499
Cu	      6.38388      8.03050      6.25756         0.019599      0.069611     -0.130649
Cu	      6.34471      6.09313      8.40267         0.001409      0.169519     -0.028328
O	      8.78393      6.02359      8.36056        -0.089444     -0.164742      0.087532
O	      4.36654      7.96679      6.17132         0.025053      0.147335      0.137748
O	      6.38411      8.12273      8.49221         0.029251     -0.030331     -0.106652
O	      6.24903      6.04223     10.35347        -0.010125      0.082111     -0.057272
O	      8.63150      8.24589     10.51046         0.136529     -0.402897     -0.032000
O	      2.01364      1.97570      2.12880        -0.051858      0.405698      0.017057
O	      4.43558      4.11613      2.20008        -0.449242     -0.119650     -0.005434
O	      4.27100      1.88155      4.36414         0.040251      0.210882      0.051973
O	      6.64690      4.02329      4.06792        -0.150566      0.014885      0.041021
O	      6.52343      2.05758      6.52828        -0.031903      0.011098     -0.128802
O	      8.58728      4.10534      6.58101         0.079867      0.120426      0.047222
O	      2.06368      4.05897      3.96840        -0.054130     -0.029565      0.595489
O	      4.25111      6.08170      4.23394        -0.016626     -0.062593     -0.101256
O	      4.15205      4.08067      6.20911        -0.019582     -0.265504      0.100477
O	      6.17673      6.05467      6.43256        -0.006970     -0.110544      0.039881
O	      6.47195      4.00995      8.45837         0.597397     -0.027073     -0.188080
O	      2.25993      5.99457      6.36677        -0.146780      0.031530      0.095279
O	      4.09393      6.07758      8.14317        -0.092098     -0.063651      0.046233
