# total energy = -198.87096016 eV
 
CRYSTAL
PRIMVEC
0.020074 6.135210 6.165206 
6.262095 -0.015822 6.201730 
4.145804 4.085504 0.018255 
PRIMCOORD
36 1
Li	      2.10110      0.03014      2.10557        -0.032764      0.051141     -0.098152
Li	      4.18000      6.12396     10.22948         0.029541      0.009816     -0.021640
Li	      2.10859      4.04463      2.20254         0.061623     -0.026073      0.046088
Li	      2.01756      2.07001      4.05793        -0.036937      0.098903     -0.034971
Li	      4.15813      4.12813      4.06033        -0.085372      0.016837     -0.028564
Li	      0.11287      4.05111      4.06166         0.051766     -0.071580     -0.000596
Li	      2.10520      6.07911      4.12965         0.073958     -0.030922     -0.006423
Li	      4.14711      6.14089      6.10749        -0.042923      0.003947     -0.018730
Li	      6.22990      6.08973      8.30584         0.014389     -0.048442     -0.041792
Mn	      4.18070     10.20959      6.19000         0.221683     -0.093554      0.369505
Mn	      8.29935      6.10946      6.20543         0.012169      0.204607      0.037352
Mn	      4.17699      4.14594      8.27892         0.001409     -0.090429     -0.095843
Co	      6.27485      8.17671     10.30315        -0.076975      0.340807     -0.893528
Ni	      2.12782      8.15736      6.18361         0.006787     -0.043998     -0.060752
Ni	      4.11908      2.00380      2.13064        -0.004152     -0.021996      0.003505
Ni	      4.20784      6.11898      2.22806         0.013032     -0.001066     -0.079012
Ni	      6.25938      4.12276      6.18565        -0.051955      0.071375      0.321234
Ni	      2.08280      4.09364      6.05279        -0.000537     -0.018442      0.400752
O	      4.15905      6.11565      4.17154         0.004966     -0.020774      0.110958
O	      2.08920      2.04752      2.00111         0.065589     -0.042745      0.192503
O	      4.14608      4.08539      1.92614         0.032319     -0.104420     -0.084377
O	      4.34660      2.03511      4.21392        -0.352043     -0.014267      0.167611
O	      6.25081      3.87894      4.21699         0.019080     -0.296725     -0.053488
O	      6.21275      1.98132      6.12375        -0.148961     -0.219034      1.196412
O	      8.39875      4.17146      6.21994         0.066918      0.025649     -0.026073
O	      2.10896      4.08731      4.13853         0.013087      0.011600     -0.306255
O	      4.15759      3.98039      6.31760         0.150507     -0.101818     -0.037249
O	      6.45020      6.12929      6.16268         0.093329     -0.122926     -0.029874
O	      6.08992      4.05463      8.22699        -0.040405      0.216978      0.096802
O	      8.38467      6.22733      8.12363        -0.225657      0.035414      0.041007
O	      1.92209      6.13245      6.15754        -0.218203      0.096170     -0.016603
O	      4.15782      8.30631      6.21240        -0.064158      0.149012     -0.156549
O	      4.19899      6.03119      8.18263        -0.086695     -0.096405      0.085733
O	      6.31658      8.14883      8.37711         0.120129     -0.068686     -1.014788
O	      6.26083      6.27033     10.43594        -0.023059      0.169632      0.089859
O	      8.17844      8.16307     10.23886         0.438516      0.032415     -0.054062
