# total energy = -201.71581868 eV
 
CRYSTAL
PRIMVEC
0.009604 6.125057 6.155023 
6.287447 0.000968 6.164071 
4.193553 4.091201 -0.001342 
PRIMCOORD
36 1
Li	      2.13399      8.14832      6.10671         0.021908     -0.019149      0.057985
Li	      8.31527      4.08888      4.15720         0.082488      0.050179     -0.053672
Li	      6.30040      2.07673      4.11161        -0.095654     -0.052577     -0.018291
Li	      6.35828      6.06742      4.16471        -0.048881     -0.065666      0.027032
Li	      4.23398      4.08452      4.18434         0.089419      0.058945     -0.010943
Li	      4.17456      8.17408      4.20488         0.024533      0.010382      0.028077
Li	      2.08429      4.08249      6.06814         0.006711     -0.001902      0.106386
Li	      4.22842      6.02909      6.06784         0.039065      0.050535     -0.015289
Li	      4.19657      4.10311      8.16949        -0.094630      0.036065     -0.116849
Mn	      4.18026      2.06617      2.13194         0.202109     -0.171543     -0.090234
Mn	      4.21262      6.15015      2.09932        -0.072787     -0.018852      0.210390
Mn	      6.27144      6.13192      8.20371        -0.067921      0.196788     -0.042043
Co	     10.47735     10.19255     12.29923         0.214776     -0.195679     -0.086834
Co	      8.37985      6.18951     10.30419         0.061318     -0.098225      0.204241
Cu	      2.09483      4.08956      2.07782         0.021607     -0.174474      0.114904
Ni	      6.36253     10.17177      8.26996         0.168676     -0.013860     -0.001055
Ni	      4.18407      2.08537      6.05980        -0.082274      0.118415     -0.134499
Ni	      6.25920      4.09383      6.07741         0.091120     -0.032035     -0.209903
O	      8.37871      7.93652     10.25428        -0.033396     -0.183414     -0.014317
O	      2.18309      2.02494      2.11150         0.023052      0.339287      0.005084
O	      4.33177      4.05905      2.08384        -0.495014      0.073877      0.279974
O	      4.18337      2.04147      4.00456        -0.025794      0.061582     -0.081161
O	      6.34973      4.05654      4.14144         0.071822     -0.057399     -0.351848
O	      6.26810      1.93248      6.30514         0.078000     -0.056936     -0.003718
O	      8.46549      4.12069      6.25881         0.175235     -0.086559     -0.075006
O	      2.09113      4.34394      4.02006         0.014083      0.229124     -0.043483
O	      4.10746      6.18863      3.98834         0.026871      0.007940     -0.122894
O	      4.30870      4.04785      6.13046        -0.311196      0.099354      0.065228
O	      6.34143      6.12633      6.24964        -0.101551      0.070005      0.049806
O	      6.22097      4.10868      8.08401         0.467678     -0.089200      0.235797
O	      8.30475      6.12821      8.19812        -0.099355     -0.093508     -0.052938
O	      1.93070      6.10418      6.13933        -0.219557      0.064656      0.115455
O	      4.16537      8.32163      6.28997        -0.069587      0.088937      0.053196
O	      4.24816      6.25413      8.18420         0.046868      0.022554      0.025973
O	      6.15503      8.11547      8.19950        -0.075592     -0.129772      0.054903
O	      6.35186      6.10968     10.15199        -0.034153     -0.037875     -0.109453
