# total energy = -201.85009568 eV
 
CRYSTAL
PRIMVEC
-0.004199 6.291288 6.028799 
6.280824 -0.022125 6.047099 
4.174254 4.192963 -0.001351 
PRIMCOORD
36 1
Li	      2.22595      8.34524      5.95134        -0.055456     -0.013022      0.036563
Li	      4.21803      8.37205      7.95337        -0.079571      0.031000      0.014128
Li	      4.08301      4.26845      4.16482        -0.027128     -0.001706      0.101534
Li	      8.27736      6.29673      6.04767         0.104581      0.154348      0.024758
Li	      6.18510      4.29333      6.04495        -0.121395     -0.084783      0.027099
Li	      4.21346      8.33186      4.06754        -0.035336     -0.025570     -0.023378
Li	      2.16919      6.24621      4.11039         0.015014     -0.005969     -0.042002
Li	      6.13937      8.36964      6.03448         0.221546      0.053344     -0.011387
Li	      4.24498      6.35921      5.93368        -0.086117     -0.100541      0.050155
Mn	      2.07223      0.02921      1.96560         0.124726      0.124871     -0.110413
Mn	      8.37997      4.17839      4.05762        -0.033036     -0.045967      0.010201
Mn	      2.06968      4.16132      2.02321         0.037863     -0.041578     -0.105169
Co	      4.16741      6.24908      1.99509        -0.084070      0.228227      0.182685
Co	      4.17419      4.16594      7.95319        -0.029532      0.029721      0.781732
Cu	      6.27580      6.33041      4.11368        -0.020353      0.020926     -0.037359
Cu	      6.25315      6.31402      7.97987         0.144072     -0.102478     -0.142345
Ni	      4.19196     10.42575      6.00910         0.033258      0.071699      0.043667
Ni	      6.23814      2.11024      4.09402         0.018970      0.054520      0.163355
O	      1.98885      6.31087      6.10712         0.088298      0.022987      0.082329
O	      4.19140      8.55181      6.00019         0.007461     -0.179164      0.012877
O	      2.12579      2.10654      2.07837        -0.017499     -0.139264     -0.134083
O	      4.07251      4.28140      2.03736         0.152937      0.025371      0.107284
O	      4.13271      1.90778      4.06596         0.042503     -0.046972     -0.009718
O	      6.41605      4.17936      3.97679         0.047521      0.088218      0.007790
O	      6.27623      1.86689      6.14130         0.045898      0.036981     -0.055859
O	      8.49305      4.09627      6.01771        -0.220037     -0.029241     -0.105562
O	      2.10861      4.16189      3.88968        -0.043458     -0.055421     -0.052818
O	      4.28978      6.27383      3.91204        -0.038901     -0.089142     -0.146884
O	      4.19980      4.16151      6.18860        -0.032800      0.041738     -0.296672
O	      6.23361      6.30539      6.05261         0.022492      0.002997      0.231942
O	      6.36870      3.96571      8.00049        -0.415136     -0.110812     -0.062351
O	      8.25587      6.14527      8.08730        -0.150863      0.213329     -0.022725
O	      4.24765      6.26488      8.13429        -0.020548      0.005264     -0.062966
O	      6.28823      8.57543      8.09755         0.373865     -0.105581     -0.218349
O	      6.11495      6.35297      9.98699        -0.045317     -0.039672     -0.028727
O	      8.32621      8.51215      9.92323         0.075548      0.011341     -0.209332
