# total energy = -201.67218901 eV
 
CRYSTAL
PRIMVEC
0.007945 6.142928 6.286772 
6.211798 0.012803 6.281806 
4.139891 4.090589 0.010031 
PRIMCOORD
36 1
Li	      4.15131      4.04748      0.08872         0.008145      0.020077      0.049647
Li	      2.19990      8.16958      6.31744         0.060577     -0.021732      0.029458
Li	      6.15969      4.09612      2.13068        -0.016851     -0.036825      0.004224
Li	      4.18381      8.20367      8.28118         0.018621     -0.011303     -0.003103
Li	      4.15603      4.10472      4.17927         0.000944      0.007780     -0.019884
Li	      6.17463      4.06880      6.30255        -0.015520      0.015360     -0.004012
Li	      4.13948      8.18949      4.25330         0.075511     -0.020137      0.036501
Li	      4.11646      6.18218      6.30010        -0.023219     -0.040215     -0.001254
Li	      4.13923      4.13712      8.33590        -0.022432      0.069973     -0.054261
Mn	      6.21813      2.06915      8.35568        -0.001715     -0.158565      0.260658
Mn	      2.08574      6.16377      4.23310         0.107090     -0.187655     -0.007803
Mn	      6.17641      8.19861      6.29650        -0.116983      0.135782     -0.346412
Co	      8.23469      4.04305      4.24954         0.195196      0.050959     -0.074215
Co	      6.17592      6.10539      4.18548        -0.002762      0.073433     -0.164619
Cu	      6.19141      2.08090      4.18208        -0.069111     -0.041806      0.046286
Cu	      4.16715      2.10823      6.25055         0.004721     -0.183536      0.023262
Cu	      6.15666      6.11720      8.32344        -0.347126     -0.243631      0.112260
Ni	      2.09574      4.06624      2.05790         0.112882      0.030904     -0.091481
O	      4.29740      8.16207      6.30172        -0.038399     -0.062363     -0.063087
O	      4.20693      6.12476      8.70040        -0.108496     -0.034546     -0.627381
O	      6.21293      8.09790      8.18493        -0.001470      0.045773      0.125155
O	      1.93899      2.05864      2.12838         0.077542     -0.204365      0.578563
O	      4.09877      4.24688      2.10598         0.170707      0.005044      0.037779
O	      4.16812      2.01976      4.25947         0.033144      0.130793     -0.415524
O	      6.28204      4.05652      4.19071        -0.290925     -0.195914      0.102850
O	      6.11420      2.08880      6.48033         0.213119      0.021282     -0.075575
O	      8.32468      4.16439      6.11564         0.028689      0.041182      0.449266
O	      2.06246      4.17499      4.26153        -0.016716      0.033321      0.113905
O	      4.06367      6.17181      4.06700         0.084214      0.032828      0.050982
O	      4.00136      4.05415      6.27649         0.053668      0.053228      0.003194
O	      6.26322      6.22626      6.25064         0.053534     -0.027336     -0.645366
O	      6.29937      4.09372      8.34559        -0.326590      0.103969      0.037089
O	      8.37461      6.13083      8.50206         0.070128      0.339475      0.152969
O	      2.10272      6.03317      6.15192         0.028032     -0.016908     -0.009005
O	      6.32135      6.22881     10.37971         0.183107      0.463667      0.375801
O	      8.19652      8.11594     10.55375        -0.181254     -0.187992      0.013132
