# total energy = -201.88452862 eV
 
CRYSTAL
PRIMVEC
0.008598 6.275908 6.055330 
6.267226 0.008491 6.055714 
4.195254 4.201558 -0.011849 
PRIMCOORD
36 1
Li	      2.07763      2.08301      0.10009        -0.041111      0.023202     -0.020866
Li	      2.10663      0.09157      2.04312        -0.115731     -0.086806      0.044981
Li	      4.06879      2.08612      2.07832         0.079919      0.094407     -0.108950
Li	      4.22682      6.30020     10.02524         0.055513     -0.078247      0.086068
Li	      6.25470      8.33734     10.02341         0.047719      0.007381      0.008103
Li	      4.24342      6.25827      2.03050         0.002390     -0.039046     -0.069673
Li	      2.17100      4.11931      2.02159         0.039581     -0.027053      0.023917
Li	      8.31643      6.32424     10.01706        -0.009117     -0.005126      0.106422
Li	      6.27660      6.29224      8.16317         0.000342     -0.007723     -0.016493
Mn	      6.25854      0.05418      6.08379        -0.084907      0.108502      0.158891
Mn	      6.27071      8.40267      6.06345         0.071716      0.221245      0.050706
Mn	      8.37019      8.38358      8.09905        -0.006192     -0.055394     -0.072557
Co	      4.20754      4.17927      3.90536        -0.005748      0.086836     -0.025379
Co	      6.43494      4.08489      6.06294         0.017153     -0.142671      0.030607
Cu	      2.11864      2.06198      3.96184        -0.150230     -0.054265      0.247301
Cu	      8.43807      6.25178      6.06206        -0.239713      0.181329     -0.019589
Cu	      6.26258      4.22451     10.03264        -0.047651      0.180569     -0.053983
Cu	      4.12680      6.31739      6.09308         0.153045     -0.017327     -0.281691
O	      8.36752      6.45159      8.01252         0.010587      0.116620     -0.287137
O	      4.18161      6.13554      7.98665        -0.000240     -0.108141     -0.043243
O	      6.26853      6.21859     10.21126        -0.026821      0.029661     -0.109444
O	      8.44521      8.39742      9.95431        -0.084915     -0.026581     -0.094437
O	      2.09211      2.09861      2.13025         0.043445      0.012318     -0.506279
O	      4.19111      4.20221      1.92145        -0.041484      0.016115      0.154526
O	      4.12243      2.15817      4.09036        -0.162254      0.348487      0.262095
O	      6.14507      4.23968      4.15379        -0.208088      0.133903     -0.077765
O	      6.28192      2.01996      6.00042         0.234965     -0.068820      0.077576
O	      8.44103      4.24646      6.07418        -0.032873     -0.166881     -0.022014
O	      2.11889      4.24144      4.14312         0.253290     -0.237143     -0.201710
O	      4.24231      6.36776      4.13970         0.196364     -0.431180      0.235676
O	      4.07577      4.12133      6.08925        -0.038205      0.095707      0.048719
O	      6.28555      6.39971      5.90175        -0.073937      0.086049      0.489195
O	      6.13167      4.21061      8.02483        -0.065226      0.046570     -0.283627
O	      2.00217      6.14610      6.05599         0.157895     -0.028392      0.030461
O	      4.32909      8.50221      6.02088         0.083161     -0.110124      0.200194
O	      6.42116      8.36059      7.95865        -0.012641     -0.097978      0.039397
