# total energy = -204.52005392 eV
 
CRYSTAL
PRIMVEC
-0.004661 6.244261 6.133358 
6.312408 -0.002871 6.131815 
4.207618 4.161322 -0.001388 
PRIMCOORD
36 1
Li	      4.24101     10.31897      6.10918         0.015365     -0.051827     -0.030922
Li	      2.29231      8.28737      6.07798         0.117941     -0.011890     -0.032507
Li	      8.34871      4.22081      8.21777        -0.003810     -0.032113      0.043784
Li	      4.11488      4.21289      4.11155        -0.031569     -0.017539     -0.049482
Li	      6.27142      4.15885      6.18651        -0.008856     -0.099206      0.012530
Li	      4.27081      8.30634      4.14545         0.003395      0.010198      0.134835
Li	      2.11692      6.07510      4.20111         0.003059     -0.059493      0.054341
Li	      2.03603      4.18136      6.07354        -0.077968      0.052326     -0.011473
Li	      4.14332      6.39196      6.04792        -0.067339      0.133516      0.012121
Mn	      2.09681      6.25430      8.05681         0.129692     -0.130018     -0.113489
Mn	      4.22434      0.02747      4.08416         0.143570     -0.055040     -0.109960
Mn	      2.07081      2.13341      4.10937         0.029609      0.216581     -0.128481
Co	      6.32900      2.08109      4.20161         0.056699     -0.013511     -0.068708
Co	     10.45917      6.25594      8.16340         0.235319     -0.231878      0.229771
Co	      8.44679      8.25607      8.18587        -0.082375      0.283685      0.208079
Cu	      8.38570      6.21413      6.17093         0.095611     -0.014118     -0.091977
Ni	      4.20859      8.37560      8.07797         0.160634      0.106957      0.076961
Ni	      6.34379      6.16030      8.13803        -0.181201      0.290553      0.070827
O	      4.23144      8.35351      6.22955        -0.023852     -0.055203     -0.810641
O	      2.11868      1.96664      2.09623        -0.852253      0.114910      0.089549
O	      4.42749      4.12337      2.03432        -0.091676      0.858120      0.021256
O	      4.11927      2.00069      3.90738        -0.136389     -0.031216      0.232307
O	      6.45423      4.23155      3.96946        -0.084317      0.049884     -0.006539
O	      6.08876      2.10016      6.15523        -0.116987     -0.055036      0.619578
O	      8.39677      4.28479      5.95590        -0.055543      0.085573      0.089588
O	      2.13202      3.97301      4.05824         0.069134     -0.168537     -0.038488
O	      4.40515      6.20051      4.06747        -0.094166     -0.042312     -0.497177
O	      4.18192      3.93849      6.34810        -0.009471     -0.061153     -0.018937
O	      6.43136      6.20569      6.04062         0.105453     -0.034577     -0.003797
O	      6.15514      4.14965      8.18153        -0.016732     -0.486750     -0.037730
O	      8.34421      6.22301      8.38279         0.694367     -0.116698      0.137421
O	      2.14029      6.27234      6.22511         0.011059      0.007338      0.165157
O	      4.14771      6.32399      8.21567        -0.042872     -0.390633      0.063191
O	      6.37355      8.46713      8.24669         0.220745     -0.099323     -0.173135
O	      6.11215      6.32210     10.14129        -0.031155      0.033824      0.020084
O	      8.40275      8.52801     10.13425        -0.083124      0.014606     -0.057936
