# total energy = -205.80600370 eV
 
CRYSTAL
PRIMVEC
0.009876 6.310338 6.042913 
6.109762 -0.011407 6.063591 
4.117861 4.266256 -0.051265 
PRIMCOORD
36 1
Li	      2.15887      8.37893      5.96289        -0.007920      0.008203      0.042616
Li	      4.17518      8.35106      7.96336         0.048383     -0.009755      0.041403
Li	      8.09166      4.25861      8.11601        -0.020776      0.026790     -0.029171
Li	     10.17682      8.47178     10.00152         0.030741      0.014093      0.022911
Li	      8.19893      6.38607     10.03099        -0.005399      0.012657      0.003702
Li	      6.13523      8.50710      6.06016         0.034827     -0.020025     -0.058122
Li	      4.03831      6.43949      6.12466         0.048549      0.055378     -0.059517
Li	      4.08380      4.25736      8.12203        -0.013551      0.027826     -0.064649
Li	      6.07845      6.26768      8.08387        -0.049401     -0.110058     -0.005630
Mn	      4.16775     10.45227      6.00045        -0.191080      0.161281     -0.003054
Mn	      2.03311      2.16035      3.98993         0.165925      0.064506      0.431587
Mn	      8.17757      6.35284      6.05499        -0.221684      0.007703     -0.103985
Co	      2.08087      6.32838      8.05090         0.010678     -0.115694      0.065905
Co	      8.20287     10.52222     10.01525         0.037845     -0.012413      0.035885
Co	      6.09172      2.18225      8.08513         0.278402     -1.029725     -0.006173
Cu	      6.22285      8.35152      9.92603        -0.110749     -0.094617      0.111635
Cu	      4.05409      4.26066      3.98961        -0.004795      0.141949     -0.038291
Ni	      6.14380      4.20931      6.06783         0.030839     -0.040490      0.068363
O	      6.13087      8.69167      8.07644        -0.048746      0.160173     -0.122029
O	      8.08826      8.62980     10.07682         0.077491      0.007037     -0.003063
O	      2.09620      1.99157      2.10922        -1.243444      0.297567     -0.350162
O	      4.21264      4.41219      1.93024         0.058910      0.478980      0.018252
O	      4.05414      1.90946      4.12380         0.093432     -0.123856      0.003269
O	      6.19096      4.44246      3.93529         0.043269     -0.008451     -0.115614
O	      6.01041      2.01132      6.08181        -0.035096     -0.019717      0.411528
O	      8.24151      4.35393      5.96083         0.149495     -0.080523     -0.020058
O	      2.16025      4.02245      3.99446        -0.050442      0.015161      0.004089
O	      4.23608      6.45542      3.91929        -0.130769      0.007955     -0.400594
O	      4.14709      3.98209      5.93453        -0.168540     -0.079410      0.025471
O	      6.24528      6.29338      5.92485        -0.001070      0.088966     -0.094670
O	      6.14910      4.04932      8.01559        -0.160382     -0.011244      0.089351
O	      8.13674      6.32537      7.92010         1.187807      0.239619      0.185369
O	      1.93915      6.32435      6.11586         0.084811      0.018180     -0.029301
O	      4.09979      8.64030      6.03660         0.036073     -0.025713      0.001414
O	      4.00362      6.31832      8.15329        -0.000852     -0.034977     -0.061276
O	      6.01935      6.23484     10.20638         0.047219     -0.017356      0.002607
