# total energy = -101.86090522 eV
 
CRYSTAL
PRIMVEC
0.000713 2.139057 2.138448 
5.972068 0.097377 -2.236000 
-1.972182 6.829054 -4.690106 
PRIMCOORD
16 1
Li	      0.10746      2.49012      1.78844         0.041074     -0.009058      0.007543
Li	      1.82992      2.49574     -0.35615         0.037313      0.009128     -0.010574
Li	      4.07074      2.29422     -2.29040        -0.030681     -0.011436      0.012782
Li	      0.06794      4.12272      0.15500         0.006747      0.013978     -0.011807
Ti	      4.09141      4.54383     -4.54950         0.226887     -0.082781      0.088215
Ti	      1.91759      6.89972     -4.76326        -0.269080      0.183869     -0.174557
Ni	      1.93927      4.35286     -2.21286        -0.003279      0.055035     -0.080217
Ni	     -0.02323      6.77519     -2.49742        -0.046095      0.003564     -0.004881
O	      3.97174      4.74278     -2.60832         0.077568      0.143766     -0.126797
O	      3.95791      1.97157      0.16664         0.008944     -0.179057      0.163969
O	      2.05732      6.87482     -2.59820         0.165694      0.010127     -0.008555
O	      2.08391      2.40156     -2.40206         0.000324     -0.121963      0.139480
O	      3.92277      6.60887     -4.47141        -0.158425     -0.043695      0.041314
O	      0.09123      6.66698     -4.52760         0.295024      0.117615     -0.123876
O	     -0.03464      4.67698     -2.53864        -0.366696     -0.095064      0.093288
O	     -0.03965      2.22782     -0.08871         0.014680      0.005971     -0.005327
