# total energy = -205.89409508 eV
 
CRYSTAL
PRIMVEC
-0.001275 6.182242 6.180049 
6.121854 0.033140 6.145149 
4.088365 4.105477 0.015417 
PRIMCOORD
36 1
Li	      6.19185      6.21163     12.23581        -0.012853     -0.009955     -0.069648
Li	      2.00362      8.14133      6.14146         0.040340     -0.097141     -0.056069
Li	      6.16726      8.26821     10.30784         0.029538     -0.008152     -0.072839
Li	      6.12099      6.11045      4.16126        -0.004326      0.068972      0.085745
Li	      6.12155      4.17522      6.06307         0.026925      0.073474      0.051893
Li	      2.00847      6.22831      4.23873        -0.022000     -0.001208      0.040006
Li	      4.07516      6.15918      6.26744        -0.030236     -0.013380      0.018992
Li	      8.09170      8.37182      8.29274         0.004346     -0.087309      0.009988
Li	      6.03170      6.27955      8.23787         0.014149      0.009065     -0.047688
Mn	      0.02561      2.06571      2.04162        -0.180062      0.271802      0.065793
Mn	      8.14780      6.19832      6.16463        -0.079221     -0.194278     -0.011837
Mn	      4.08896      8.25598      4.19103        -0.031896     -0.035882      0.184862
Co	      8.15565      4.16199      8.20347        -0.116839     -0.333978      0.269017
Co	      4.08578      4.14300      4.14444         0.093878     -0.040153      0.143604
Co	      2.06006      4.13494      6.17096         0.053682     -0.140768     -0.489784
Ni	      2.08453      6.13761      8.19301        -0.167159      0.133867     -0.041970
Ni	      4.08978      8.20372      8.19734         0.036825      0.081363      0.002079
Ni	      8.15135     10.27424     10.29212         0.012971      0.124551      0.406928
O	      1.97530      2.18923      1.99332        -0.031190     -0.657464     -0.006329
O	      3.98406      4.17700      2.18624         0.593598      0.015734      0.052610
O	      4.09930      2.16429      4.20425        -0.034733      0.131101     -0.000981
O	      6.01613      4.11051      4.05182        -0.193721      0.005767     -0.056218
O	      6.02281      2.10810      6.28532         0.080795      0.018540      0.023696
O	      8.14398      4.29205      6.25925        -0.060331      0.346320     -1.367409
O	      2.03461      4.11428      4.06024        -0.031838      0.050520      1.167183
O	      4.08828      6.14579      3.98166        -0.029271      0.055873     -0.060476
O	      4.00966      4.05045      6.06998         0.035008      0.116206     -0.136766
O	      6.26446      6.28071      6.19232         0.049646      0.038972      0.004574
O	      6.22026      4.02983      8.32414        -0.487069     -0.187224      0.067065
O	      8.27932      6.11601      8.12734         0.198460      0.626734     -0.131705
O	      2.05093      6.03986      6.20378        -0.010449      0.074034      0.161503
O	      4.22180      8.19478      6.09558        -0.035969     -0.003884     -0.109363
O	      4.04593      6.25397      8.29384         0.018605     -0.146488     -0.208062
O	      6.08130      8.24810      8.08108         0.088856      0.013403      0.169516
O	      6.10329      6.04008     10.25783         0.204026     -0.044033     -0.056473
O	      8.33625      8.26551     10.32097        -0.022484     -0.255002     -0.001437
