# total energy = -207.53845644 eV
 
CRYSTAL
PRIMVEC
-0.033121 6.078943 6.282594 
6.346640 0.003452 6.248415 
4.231883 4.030933 -0.000169 
PRIMCOORD
36 1
Li	      8.43076      8.03506     12.33213        -0.085844      0.094028     -0.025063
Li	      2.11396      6.06680      8.26276        -0.060512      0.033713      0.067991
Li	      4.28524      5.92730     10.36812         0.053110      0.140881      0.119748
Li	      6.52461      8.06081     10.35635        -0.117166     -0.079013      0.091503
Li	      4.21329      6.05218      2.13265         0.023735     -0.003010     -0.049280
Li	     10.32689      8.03269     10.42800         0.151973      0.077297      0.018981
Li	      8.37837      6.16107     10.45176        -0.096065     -0.150319     -0.098359
Li	      4.04684      6.13175      6.30223         0.091236      0.003388     -0.059929
Li	      6.27126      6.10061      8.49882         0.097978     -0.045660      0.040228
Mn	      4.19981      8.05524      8.37926        -0.041327      0.019090     -0.003612
Mn	      6.33576      6.07398      4.19261         0.001422      0.008180      0.023320
Mn	      6.37205      3.99711      6.26748         0.318662     -0.252975      0.165056
Co	      6.39361      6.07252     12.30111        -0.122765      0.173105      1.168317
Co	      8.43517      4.16836      8.32343         0.196729     -0.915842      0.522826
Co	      4.26172      4.07884      4.19989         0.041612     -0.004580     -0.060466
Co	      4.29298      1.99032      6.28291         0.073047      0.028438      0.040988
Cu	      6.28424      8.10655      6.32605        -0.089039     -0.030074     -0.122255
Ni	      4.27308      4.11885      8.41531        -0.214269     -0.197867     -0.362844
O	      8.43883      8.06760     10.31588        -0.031253     -0.077969      0.236149
O	      2.22402      2.11587      2.28414        -0.046685      0.226982     -0.098947
O	      4.15091      3.97841      2.25625        -0.123633     -0.000047      0.114629
O	      4.11788      2.11359      4.12889        -0.035547      0.081869     -0.060162
O	      6.22328      4.12847      4.28121        -0.047033      0.095281     -0.115215
O	      6.33814      2.05762      6.24372        -0.001692      0.001914     -0.114807
O	      8.34337      3.99297      6.30561        -0.001105      0.160571     -0.347322
O	      2.29976      3.98160      4.25059         0.143509     -0.006993      0.108645
O	      4.44740      6.00940      4.19676         0.004976     -0.047489      0.013616
O	      4.43137      4.05150      6.19142        -0.328251      0.031435      0.012742
O	      6.44722      6.01741      6.12303        -0.001092      0.196541     -0.086013
O	      6.35705      4.04902      8.16266         0.137120      0.156823      0.012073
O	      8.45491      6.01779      8.35559        -0.041025      0.285316     -0.172442
O	      1.96489      6.00857      6.27741        -0.028403      0.057930     -0.217615
O	      4.05354      8.17228      6.49089         0.091422     -0.262571      0.046797
O	      4.15343      6.16428      8.36424        -0.053571      0.179806     -0.039608
O	      6.12747      8.08142      8.30536         0.084690      0.038231      0.079338
O	      6.28210      6.03033     10.54531         0.055056     -0.016410     -0.849007
