# total energy = -211.59725173 eV
 
CRYSTAL
PRIMVEC
-0.041702 6.193490 6.082470 
6.205556 -0.032381 6.072673 
4.132603 4.118397 -0.018040 
PRIMCOORD
36 1
Li	      4.07023     10.21091      6.05105        -0.031489     -0.021654     -0.033813
Li	      2.13443      8.28402      6.04359         0.013832      0.031956     -0.032958
Li	      4.19989      0.01076      4.11087         0.047703      0.017519      0.009910
Li	      6.13967      8.13018     10.18375        -0.030792     -0.109046      0.004822
Li	      2.11946      4.11461      2.01248         0.012296      0.016471     -0.014433
Li	      4.07521      4.07093      4.00516         0.019184     -0.015352      0.008282
Li	      6.08338      8.21574      6.01438        -0.014272     -0.042061      0.009205
Li	      4.09762      6.27376      6.02290         0.029332     -0.048055      0.025068
Li	      6.17352      6.19938      8.14827         0.028947     -0.019036      0.064691
Mn	      6.19393      4.09923      2.01142         0.054414      0.012559      0.012008
Mn	      6.22132      4.11697      6.03771        -0.040510      0.026310      0.029107
Mn	      8.23845      8.25912      8.11922        -0.009310     -0.002667     -0.128320
Co	      4.14725      8.20604      8.02018        -0.009418      0.015265      0.009059
Co	      2.05348      2.06849      4.03897         0.181887      0.063066      0.094919
Co	      8.23370      6.16540      6.05094        -0.030238      0.055880     -0.130706
Co	      4.10759      8.25246      4.04820         0.052469      0.157717      0.144791
Co	      1.98296      6.12690      4.22466        -0.109651     -0.004879      0.142631
Cu	     10.31487      6.11954      8.05461         0.074183     -0.109117     -0.090954
O	      6.26195      6.02900     10.14154         0.009301     -0.016794      0.034561
O	      2.09855      1.92788      2.09545         0.122045      0.027394      0.037299
O	      4.30001      4.02554      1.98789        -0.014276     -0.017467     -0.002373
O	      3.98505      2.06501      4.12361        -0.086700     -0.017036      0.031111
O	      6.16770      4.24270      3.97211        -0.001744      0.006622     -0.039008
O	      6.07023      2.15259      6.11108        -0.057064     -0.035112     -0.010753
O	      8.12818      4.21858      6.10676         0.035479      0.054820      0.007592
O	      1.91406      4.07124      4.00495        -0.055746      0.002452     -0.030152
O	      4.16939      6.29100      3.93684         0.050731     -0.046427      0.015826
O	      4.22591      4.03478      6.17324        -0.068874     -0.095416      0.034667
O	      6.28346      6.09152      5.95389         0.017612      0.053388     -0.074895
O	      6.02545      4.20726      8.18008        -0.069232      0.040061      0.051624
O	      8.22441      6.31421      8.05436        -0.101816      0.014749      0.033906
O	      2.08671      6.17812      6.04625        -0.066593      0.013868     -0.164154
O	      4.09723      8.20857      6.00863         0.040244      0.022307     -0.121309
O	      3.99025      6.10178      8.10108        -0.039313      0.026797      0.062453
O	      6.27096      8.34426      8.12523        -0.043343     -0.004540      0.004247
O	      8.32850      8.15690     10.03855         0.090721     -0.054541      0.006044
