# total energy = -210.17531792 eV
 
CRYSTAL
PRIMVEC
0.029224 6.201891 6.324840 
6.066575 0.045331 6.308423 
4.075294 4.154668 -0.000724 
PRIMCOORD
36 1
Li	      4.09281      4.11117      0.08309         0.006423      0.042513     -0.148124
Li	      4.13267      8.29644      8.41525         0.051002      0.058337      0.026490
Li	      6.08669      2.13907      4.18427        -0.041240     -0.113746      0.030887
Li	      6.08650      2.19148      8.42001        -0.069967     -0.141581      0.006273
Li	      1.95794      4.08915      2.16080         0.022837      0.066516      0.100936
Li	      2.02856      2.11506      4.18887        -0.003602     -0.036956      0.004714
Li	      0.05702      4.10283      4.14743        -0.017312      0.095457      0.049487
Li	      6.03610      8.27301      6.32386        -0.000961      0.002539     -0.051893
Li	      6.14266      6.17857      8.39915        -0.003482      0.023640      0.100588
Mn	      2.01889      2.08866      0.04170        -0.150777     -0.072281     -0.008664
Mn	      4.12099      6.29200     10.51024         0.521136      0.093091     -0.014692
Mn	      4.09808      6.23436      6.29537         0.022491      0.118279     -0.371074
Co	      6.09008      4.13520      2.13511        -0.655164      0.271293     -0.028025
Co	      4.00682      4.10635      4.08416         0.600045     -0.190069      1.021769
Co	      8.14622      6.22334      6.38335        -0.042230      0.102130     -0.028756
Co	      6.11492      4.18391      6.34589        -0.004345     -0.095058     -0.220618
Co	      7.98714      6.19457     10.39709         1.024590     -0.404483      0.792645
Ni	      8.15806      8.31519      8.44172         0.030133     -0.070430      0.096249
O	      2.02003      1.90873      1.95917         0.183819      0.051786     -0.187182
O	      4.18577      4.11299      2.25004         0.025019      0.137683     -0.485087
O	      4.07296      2.04038      4.29178         0.017492     -0.134466      0.144939
O	      6.18230      4.22425      4.30454        -0.206512     -0.019948      0.170091
O	      6.13972      2.23347      6.31880         0.287001      0.159876      0.073819
O	      8.07587      4.11132      6.40503        -0.206139     -0.179101     -0.016683
O	      2.07875      4.16966      4.21892        -0.099647      1.027545     -0.350477
O	      3.94208      6.16977      4.32950        -0.274688      0.246546     -0.016483
O	      4.18412      4.22228      6.17149        -0.177845      0.112018      0.199976
O	      6.03987      6.15250      6.32218        -0.363827     -0.075994      0.037795
O	      6.02982      4.18113      8.25088         0.166877      0.042958     -0.110854
O	      8.11348      6.35412      8.46971        -0.042853     -0.451291      0.205368
O	      2.10582      6.34007      6.24937        -0.097082     -0.089969     -0.552566
O	      3.99828      8.14678      6.33005        -0.023920     -0.107852      0.089432
O	      4.00027      6.19127      8.31247         0.070922      0.219109     -0.137456
O	      6.19646      8.51159      8.37170        -0.167248     -0.193874     -0.024950
O	      6.12588      6.26519     10.55406        -0.270137      0.007927     -0.095935
O	      8.16789      8.45829     10.68502        -0.110808     -0.502143     -0.301937
