# total energy = -213.41859398 eV
 
CRYSTAL
PRIMVEC
0.046902 6.241268 6.274978 
6.120262 0.059162 6.263433 
4.087298 4.159845 0.032405 
PRIMCOORD
36 1
Li	      2.11534      8.29847      6.32041        -0.000985      0.101151      0.013176
Li	      6.12919      4.23158      2.22105        -0.023137      0.024721     -0.037716
Li	      8.11901      4.20914      4.22049         0.080589      0.002070      0.118729
Li	      2.08478      4.10928      2.18753         0.007574     -0.015482     -0.098295
Li	      6.11676      6.30049      4.25757        -0.020512      0.100044      0.039480
Li	      4.08379      4.18740      4.19653        -0.053255      0.003555      0.046181
Li	      4.07836      2.15034      6.16035         0.022695     -0.117636     -0.024582
Li	      4.15725      8.26173      4.26846        -0.010830     -0.024312      0.095064
Li	      4.11374      6.25773      6.22454         0.008744     -0.012056     -0.031287
Mn	      4.04397      2.09688      2.12031        -0.025169      0.141701     -0.049823
Mn	      4.16372      6.19134      2.15791         0.045211     -0.147591      0.055449
Mn	      4.07992      4.24671      8.33518         0.084725      0.021071     -0.134749
Co	     10.09257      4.22609      6.29985         1.181175     -0.166755     -0.332537
Co	      6.10948      2.14337      4.22994         0.005609      0.275427     -0.017647
Co	      6.22994      4.25914      6.20313         0.064893     -0.543744     -0.082787
Co	      2.08228      6.22248      4.20385        -0.060828     -0.029787      0.112057
Co	      2.06986      4.19232      6.23086        -0.055183      0.309034     -0.179319
Co	      6.16253      6.24723      8.31477         0.118680     -0.014711      0.073551
O	      2.04244      2.08388      2.15749        -0.019833     -0.061221      0.127506
O	      4.10849      4.21145      2.05877        -0.157824      0.110435      0.042054
O	      4.21045      2.09904      4.04190         0.036634     -0.069916     -0.126365
O	      6.11087      4.00382      4.25941         0.151765     -0.037746      0.745281
O	      6.17664      2.09264      6.40645        -0.139213      0.571866      0.000553
O	      8.27714      4.21015      6.25545        -1.091072      0.029787      0.042989
O	      2.04310      4.30309      4.33615        -0.004865      0.080170     -0.077404
O	      4.00773      6.23541      4.07847         0.023002      0.009540     -0.058517
O	      4.03737      4.21763      6.42170         0.145741     -0.017768      0.038380
O	      6.18089      6.36660      6.33662        -0.056301     -0.445524     -0.023645
O	      6.03604      4.11989      8.31282         0.098863      0.195771     -0.342921
O	      8.21977      6.37013      8.49380        -0.053844      0.144629      0.060874
O	      1.96277      6.13371      6.11823        -0.141932     -0.166522     -0.118904
O	      4.19575      8.35040      6.42378        -0.030102      0.081307      0.065845
O	      4.15333      6.19616      8.38717         0.005184     -0.125780      0.000857
O	      6.20751      8.37896      8.24217         0.070199     -0.052433      0.101984
O	      6.26092      6.43702     10.41568        -0.122613     -0.008731      0.097330
O	      8.11325      8.28217     10.34769        -0.083787     -0.144563     -0.140844
