# total energy = -195.62926538 eV
 
CRYSTAL
PRIMVEC
0.010277 6.208208 6.138619 
6.122431 -0.002857 6.151695 
4.086274 4.152044 -0.006513 
PRIMCOORD
36 1
Li	      4.09447     10.29661      6.17637        -0.004693     -0.050794      0.004056
Li	      2.09011      8.29979      6.14044         0.009015     -0.007219     -0.000509
Li	      2.07073      4.13146      2.05111         0.024493     -0.013868      0.015013
Li	      2.04940      2.14494      4.12384         0.022778      0.103397      0.025583
Li	      4.02815      4.13993      4.16254        -0.054263     -0.024965      0.028421
Li	      4.05926      2.09780      6.12944        -0.025833      0.066986     -0.039823
Li	      2.07917      4.16469      6.07794         0.073533      0.024926      0.024020
Li	      4.07527      6.17607      6.14340         0.001489     -0.057961      0.046071
Li	      4.09545      4.12959      8.11266        -0.001320     -0.011277     -0.063976
Mn	      6.12369      2.08475      4.13098        -0.002066      0.054754      0.070381
Mn	      0.00700      2.03960      2.01702         0.016776     -0.056431     -0.126614
Mn	      6.15984      6.17183      8.13171        -0.001766      0.049031     -0.054136
Cu	      8.15386      4.14940      4.13475         0.058569     -0.000594     -0.018537
Cu	      4.15394      8.23360      4.21496        -0.280217     -0.217994      0.052264
Ni	      2.06283      6.20908      8.09273         0.067100     -0.071021     -0.036068
Ni	      4.02897      2.13088      1.99101        -0.078718      0.061081     -0.094602
Ni	      6.10507      4.16750      6.14046         0.016168      0.011742      0.017829
Ni	      2.07844      6.17153      4.15516         0.000163      0.073549      0.087433
O	      4.24869      4.16129      6.11886        -0.300893      0.020673     -0.004609
O	      4.08933      8.29538      6.13358         0.012236     -0.006217      0.022703
O	      1.96068      2.01198      2.05827        -0.141995      0.133822     -0.008875
O	      4.11725      4.22421      2.02858        -0.166387      0.118776     -0.025860
O	      4.20504      2.03408      4.04025         0.010481      0.088405      0.116837
O	      6.18668      3.99369      4.03640        -0.177148     -0.059020     -0.087313
O	      6.09196      2.18233      6.12300        -0.021384     -0.078194     -0.008324
O	      8.01114      4.16508      6.05690         0.193111      0.007780      0.133563
O	      1.95935      4.20025      4.12938         0.367625     -0.093889     -0.038618
O	      4.07270      6.26254      3.92098         0.160643      0.019009      0.036254
O	      6.13641      6.11539      6.27467         0.002423      0.116327      0.010825
O	      6.12823      4.13291      8.23691         0.007849     -0.065899      0.100557
O	      8.17515      6.21211      8.27980         0.017090     -0.011206     -0.106314
O	      2.06624      6.18945      6.11984         0.003578     -0.010215     -0.010780
O	      4.16230      6.26725      8.26401         0.121271     -0.101290     -0.082888
O	      6.11363      8.24835      8.31486         0.141412     -0.051039     -0.020147
O	      6.12222      6.31198     10.15183         0.027581      0.080730      0.045038
O	      8.08230      8.26627     10.24846        -0.098699     -0.041898     -0.008854
