# total energy = -198.39596341 eV
 
CRYSTAL
PRIMVEC
0.013358 6.190674 6.178886 
6.277954 -0.003272 6.195755 
4.187678 4.140652 -0.004602 
PRIMCOORD
36 1
Li	      4.24063     10.32539      6.20914         0.109229     -0.033269      0.064842
Li	      2.08634      2.06346      0.01375         0.041396     -0.034834      0.083340
Li	      2.06068      0.07614      2.02048        -0.039597      0.082398     -0.112186
Li	      0.06555      2.03274      2.07825         0.129547     -0.019301      0.004992
Li	      2.12057      4.08560      2.06796         0.014033     -0.087774      0.062056
Li	      2.04441      2.07861      4.04374        -0.100153      0.067700     -0.103341
Li	      4.15241      8.22137      4.14642         0.030385     -0.087082      0.047090
Li	      4.13935      6.22024      6.11936        -0.089010      0.020996     -0.118196
Li	      8.39602      8.24995      8.29240         0.041736     -0.003198     -0.019590
Mn	      4.12606      2.09059      2.05830        -0.266607      0.093387     -0.341878
Mn	      6.27104      4.12106      6.19544        -0.159449      0.020007      0.054989
Mn	      6.30914      6.16832      8.25621         0.002615     -0.050831     -0.204809
Cu	      8.39129     10.26991     10.31073        -0.097765     -0.016715      0.018400
Cu	      4.17531      4.17667      4.10547        -0.027426      0.010380     -0.220771
Cu	      2.15624      6.23137      4.12518        -0.037576     -0.028422     -0.106690
Cu	      2.05760      4.19205      6.17034        -0.313146      0.014344     -0.006038
Ni	      6.35038      8.26850     10.33100        -0.117344     -0.005043     -0.095629
Ni	      4.21581      2.05646      6.20670        -0.091123      0.017702      0.027603
O	      2.10440      6.13045      6.09719        -0.031620      0.180348      0.292821
O	      4.24765      8.26936      6.33108         0.000428     -0.046177      0.231535
O	      6.38738      6.20932     10.18165        -0.018795     -0.102248      0.029196
O	      8.37062      8.24239     10.30804         0.108147      0.123890     -0.002979
O	      2.28202      2.04315      2.04551         0.156334     -0.002694      0.079049
O	      4.19785      3.99263      2.12293         0.044734     -0.047994     -0.074431
O	      4.23197      2.08924      4.04995         0.052473     -0.137213     -0.043158
O	      6.18821      4.13147      4.24953         0.220127      0.082525      0.078217
O	      6.24074      2.20779      6.21697         0.065770      0.023377      0.083350
O	      8.20901      4.17024      6.05265         0.065293     -0.109007      0.077823
O	      2.16433      4.18587      4.24533        -0.052500     -0.155473     -0.136590
O	      4.12461      6.14954      4.06177         0.024725      0.251997     -0.047223
O	      4.29312      4.10157      6.12978         0.139538      0.100747      0.058153
O	      6.30555      6.12306      6.30381        -0.045371     -0.073837      0.128378
O	      6.27462      4.25565      8.11410         0.016827      0.006796      0.005680
O	      8.20163      6.19531      8.26965         0.003394      0.026148     -0.131715
O	      4.32027      6.27808      8.36714         0.114788     -0.076490     -0.025904
O	      6.19134      8.14090      8.17780         0.105961     -0.005142      0.363614
