# total energy = -103.48413152 eV
 
CRYSTAL
PRIMVEC
0.000031 2.102400 2.102632 
6.116975 4.187074 -6.290126 
-4.119260 2.119679 -2.120016 
PRIMCOORD
16 1
Li	     -4.02918      2.09760     -2.09936         0.016780      0.008039     -0.008185
Li	     -2.08567      4.21808     -2.11385        -0.014157      0.011996     -0.011914
Li	     -0.02054      4.20262     -4.20465        -0.015441      0.003981     -0.004826
Li	      1.99011      6.25128     -4.14947        -0.014818     -0.014333      0.013940
Ti	     -0.01728      2.11152     -2.09656         0.029682     -0.016602      0.029500
Ti	      4.15922      4.20555     -4.20370         0.200309     -0.041734      0.041308
Ni	      3.96023      6.30925     -6.31088        -0.044448     -0.039117      0.040641
Ni	      2.03298      4.21548     -2.11332        -0.007065     -0.013064      0.013763
O	     -0.01828      6.41922     -4.31679         0.110683      0.080167     -0.085427
O	     -0.05790      4.12414     -2.02337        -0.086928     -0.079236      0.072661
O	      2.14811      4.16330     -4.16385         0.075434      0.110906     -0.108881
O	     -0.04130      2.20623     -0.10422         0.091616      0.092531     -0.101761
O	      1.91603      2.12688     -2.12791        -0.149519     -0.078857      0.079183
O	      1.91740      6.32376     -6.32465        -0.316957     -0.003656      0.002279
O	     -1.99913      2.05930     -2.06141         0.110371      0.110240     -0.102091
O	      4.06636      6.24529     -4.14318         0.014458     -0.131261      0.129810
