# total energy = -195.93309719 eV
 
CRYSTAL
PRIMVEC
-0.057786 6.389056 6.031847 
6.341800 -0.047332 6.023738 
4.190053 4.215011 0.005927 
PRIMCOORD
36 1
Li	      8.36022      2.24226      5.99749         0.094458     -0.016484     -0.020223
Li	      4.11736      2.08162      2.10282         0.014869     -0.033233      0.115568
Li	      4.24279      0.08816      4.07168        -0.051011      0.106524     -0.030773
Li	      6.27438      2.03451      4.07274        -0.110574      0.083492     -0.096292
Li	      2.12301      4.18274      2.03151         0.070204      0.036817      0.054120
Li	      2.23565      2.11377      3.97450         0.156455     -0.078394      0.003966
Li	      4.14221      4.08310      4.02043         0.048577     -0.197496     -0.066588
Li	      4.36947      1.97955      5.93663        -0.058209      0.025642     -0.093898
Li	      6.28519      4.25500     10.02291        -0.017810     -0.008178      0.036823
Mn	      6.22022      4.18125      2.12301         0.187626     -0.134464     -0.037015
Mn	      6.23021      8.41263      5.96419        -0.105030      0.044056     -0.034083
Mn	      4.13377      6.36004      5.97979         0.255834      0.121990      0.034039
Cu	      0.02529      2.13017      2.05187         0.023642     -0.020064     -0.024040
Cu	      6.42680      4.17266      5.96498         0.250766      0.274735     -0.341418
Cu	      4.22132      4.26354      8.06579        -0.158886      0.098463      0.139384
Cu	      6.27421      6.39024      8.09222         0.064958      0.109699      0.132016
Cu	     10.45308      4.20528      6.00332         0.097823     -0.035718     -0.174061
Cu	      8.39474      6.35834     10.02141        -0.153864     -0.168794     -0.010355
O	      6.21126      4.45989      7.90850         0.380790      0.154075     -0.094143
O	      8.60131      6.49686      8.09431         0.370795     -0.457738     -0.469580
O	      6.41219      6.34911     10.05845        -0.110736     -0.020139      0.250171
O	      8.40961      8.33853     10.00051         0.038728      0.151793     -0.077119
O	      1.97850      1.85524      2.02682        -0.315262      0.207892     -0.090636
O	      4.32150      4.05669      1.90374        -0.114126      0.160253      0.015390
O	      4.20747      2.08117      4.02229        -0.001149      0.014620      0.036957
O	      6.28176      4.14732      3.98681         0.011801     -0.012976      0.473505
O	      6.34444      2.25988      6.14762         0.061633     -0.268171      0.237924
O	      8.55654      4.18757      6.08247        -0.312893     -0.038665      0.066955
O	      2.06075      4.30285      4.09659        -0.053100      0.064104      0.068986
O	      4.08016      6.35089      4.06126        -0.066882     -0.036802     -0.308623
O	      3.99320      4.39474      6.04458         0.059969     -0.144445      0.190400
O	      6.12813      6.45789      6.06442         0.255896     -0.136213      0.079290
O	      2.06323      6.19250      6.05829        -0.287927     -0.054943      0.134517
O	      4.30505      8.25342      6.05248        -0.006266      0.169068     -0.060148
O	      3.93994      6.30152      7.96709        -0.288251      0.179193      0.092687
O	      6.33832      8.46328      7.95300        -0.232843     -0.139497     -0.133704
