# total energy = -203.43601608 eV
 
CRYSTAL
PRIMVEC
-0.018701 6.317363 6.149718 
6.228993 0.014871 6.115592 
4.157965 4.194466 0.004851 
PRIMCOORD
36 1
Li	     10.29696      4.28305      6.11415         0.004269      0.036763     -0.091085
Li	      8.27918      4.27836      4.17322         0.007610      0.133581     -0.007667
Li	      6.18286      2.13841      4.20198        -0.090804     -0.041617     -0.026906
Li	      6.22153      2.12794      8.13761         0.008664     -0.030587      0.001842
Li	      6.24162      6.22896      4.12446         0.045720     -0.035831      0.120400
Li	      4.20389      4.19974      4.12106         0.006322     -0.049440      0.037133
Li	      4.22085      2.10332      6.01304        -0.007577      0.056301     -0.162025
Li	      6.26640      4.12904      6.09012        -0.014473      0.010566      0.025697
Li	     10.35219      8.39490     10.20313         0.025096      0.038136      0.010545
Mn	      6.19586      4.23419      2.12368        -0.266876      0.040571      0.209853
Mn	      2.10186      6.32408      4.10315        -0.277292     -0.115693      0.074709
Mn	      2.07193      4.19000      6.09909        -0.017414     -0.268115      0.004849
Fe	      4.13942      2.12566      2.16111         0.155716     -0.204334     -0.127733
Co	      6.23981      6.27264      8.21562         0.326723      0.205629      0.012802
Cu	      8.17187      2.24263      6.05012         0.116015     -0.034947     -0.138415
Ni	      8.29396      4.21989      8.14340        -0.038429      0.023447      0.075553
Ni	      4.16770      6.29171      6.09547         0.108960     -0.013411     -0.002088
Ni	      4.21400      4.20373      8.18891         0.044553      0.052927      0.046082
O	      8.32752      4.16510      6.15093        -0.007373      0.034459     -0.011410
O	      2.12971      2.04502      1.94294        -0.202993     -0.218449      0.074936
O	      4.23127      4.09808      2.04538         0.225596      0.346504     -0.078361
O	      4.14386      2.08594      3.97867        -0.035935     -0.002009      0.453460
O	      6.22712      4.21979      3.93153         0.001551     -0.023663     -0.161286
O	      6.27976      2.11558      6.13131        -0.119662      0.034967      0.074336
O	      2.04509      4.32934      4.18067         0.040417      0.023942     -0.041911
O	      3.99250      6.32087      4.10506        -0.054485     -0.037432     -0.225364
O	      3.98845      4.23288      6.17960        -0.025751     -0.094741     -0.093000
O	      6.20552      6.46564      6.27534         0.174487     -0.064155     -0.115570
O	      6.23077      4.38844      8.14361         0.105746      0.377088     -0.029421
O	      8.29524      6.30716      8.31236        -0.700566     -0.044463     -0.056405
O	      2.05883      6.17384      6.10910        -0.107657      0.067669      0.050477
O	      4.27049      8.35108      6.25310        -0.002615      0.089882     -0.117514
O	      4.05323      6.32413      8.17369         0.375673     -0.039490      0.050412
O	      6.22683      8.45390      8.07762        -0.003693     -0.131045     -0.012276
O	      6.34910      6.34014     10.04665         0.184285     -0.122703      0.153939
O	      8.30454      8.25034     10.25050         0.016191     -0.000309      0.021411
