# total energy = -203.89717030 eV
 
CRYSTAL
PRIMVEC
0.017560 6.185063 6.259769 
6.222427 -0.007317 6.284476 
4.134032 4.125738 0.009375 
PRIMCOORD
36 1
Li	      8.21612      2.14932      6.26569         0.094119     -0.069040      0.088897
Li	      4.08220      2.09386      2.10720        -0.032419      0.019291      0.034604
Li	      8.42099     10.25722     10.59898        -0.090488      0.012068     -0.032902
Li	      6.31455      8.12843     10.56184        -0.029008      0.112437     -0.066296
Li	      6.26095      2.07234      8.26296         0.063619     -0.033741      0.101856
Li	      8.27569      4.05438      8.29730        -0.016680     -0.075833      0.116236
Li	      8.38583      6.06432      6.29352        -0.101743      0.044566     -0.045348
Li	      6.16796      4.23097     10.49392         0.014466     -0.102004      0.005010
Li	      8.18422      6.25661     10.44517         0.132016     -0.029440      0.001027
Mn	      4.12924      4.08364      4.15550        -0.108693     -0.169997     -0.065840
Mn	      4.14507      6.23985      6.23978        -0.063258      0.032592     -0.230316
Mn	      8.32874      8.17204      8.43376         0.017063      0.045414      0.100890
Fe	      2.05941      0.04653      2.10391         0.102472      0.330507      0.087607
Co	      6.24987      4.05360      6.27844         0.818453     -0.469815     -0.453768
Cu	      2.10906      2.06344      4.14498        -0.045394      0.146264     -0.080024
Cu	      6.25831      6.18618      8.51813        -0.140897     -0.132397      0.137478
Ni	      6.09127      0.06497      6.22127         0.104383     -0.096764      0.701134
Ni	      6.20223      8.23328      6.26537         0.126761     -0.011833     -0.124842
O	      8.18544      6.32821      8.35798         0.208449      0.068463     -0.034996
O	      6.23809      6.16748     10.58663        -0.017243      0.137303     -0.703419
O	      2.09097      1.97586      2.20832         0.039697     -0.230390     -0.333899
O	      4.21122      4.12040      2.21678        -0.140853      0.015884     -0.196304
O	      4.08005      2.20814      4.20563         0.285387      0.109455     -0.013625
O	      6.10660      4.14808      4.22569        -0.227694     -0.061609     -0.504620
O	      6.23886      2.14024      6.28570        -0.084594     -0.554426     -0.028479
O	      8.17912      4.11604      6.31657         0.707634      0.022191     -0.080946
O	      2.23013      4.05675      4.20658        -0.028059      0.233866     -0.048473
O	      4.17105      6.07174      4.31395        -0.158880     -0.004988      0.144711
O	      4.22040      4.21512      6.20346        -0.661072      0.111453      0.063453
O	      6.07741      6.10190      6.18412        -0.016809      0.343714      0.281206
O	      6.10964      4.11628      8.19715        -0.338616      0.415417      1.004452
O	      2.19186      6.17189      6.34534        -0.101380      0.091255     -0.042246
O	      4.19569      8.13573      6.26436        -0.190934     -0.027429      0.030794
O	      4.19238      6.09329      8.21563        -0.039462     -0.088596     -0.011293
O	      6.37751      8.30778      8.30794        -0.040968     -0.141886      0.136220
O	      8.33693      8.26697     10.22458        -0.039377      0.008046      0.062062
