# total energy = -202.91516388 eV
 
CRYSTAL
PRIMVEC
-0.056580 6.207766 6.278536 
6.100407 -0.016307 6.237456 
4.079738 4.124233 -0.023836 
PRIMCOORD
36 1
Li	      8.09321      8.20192     12.41201        -0.027823     -0.047134     -0.054458
Li	      6.06067     10.24109      8.26593         0.005522      0.005287      0.021825
Li	      4.11128      8.26970      8.31375        -0.025978     -0.021938      0.111202
Li	      6.12415      8.17456     10.30228        -0.004985      0.099753     -0.048836
Li	     10.14574      6.16562      8.28238         0.028466     -0.029865      0.044313
Li	      8.02051      6.31161     10.39261         0.073905      0.006502     -0.035232
Li	      6.04009      8.33100      6.42984         0.092728      0.009615      0.027251
Li	      8.00412      8.21464      8.39701         0.051980      0.018264     -0.068062
Li	      6.10101      6.29678      8.40253        -0.026120      0.038762     -0.045234
Mn	      2.00673      2.07290      4.16865         0.127389      0.025281     -0.189241
Mn	      6.09277      4.04892      6.27423        -0.199267      0.044744     -0.189429
Mn	      3.94919      6.27020      6.32895         0.042991     -0.368976      0.000004
Fe	      2.04909      4.15182      2.07598        -0.013569     -0.134439      0.375650
Co	      4.06093      4.13401      4.14242        -0.113652     -0.285865     -0.827980
Cu	      4.07429      6.15039     10.28450        -0.455041      0.435618     -0.021047
Cu	      8.12770      6.18302      6.31186        -0.067466      0.109850      0.094987
Cu	      5.99865      4.18180     10.39997         0.598051     -0.359757      0.218581
Ni	      0.02786      6.18131      6.29121        -0.022662      0.105809      0.308432
O	      6.07020      8.25681      8.36208        -0.054026     -0.031853      0.013570
O	      6.01775      6.19016     10.54791         0.155287     -0.122836     -0.154421
O	      8.19260      8.35854     10.34316        -0.456169     -0.286922      0.030905
O	      2.01833      2.14514      2.31356        -0.027630     -0.250008      0.038522
O	      3.99641      4.12041      2.14806         0.212649      0.002141     -0.644016
O	      3.91995      2.13883      4.31220        -0.041213     -0.800488      0.013755
O	      6.03531      4.24278      4.23920         1.330054     -0.036547      0.162310
O	      6.03263      2.14021      6.20484        -0.042871      0.138548      0.011208
O	      8.02461      3.99248      6.31061         0.134578      0.072221     -0.226170
O	      2.07435      4.00256      4.15849        -1.269615     -0.077412      0.048702
O	      4.14861      6.08919      4.23598        -0.077825      1.278152      0.033332
O	      4.13784      4.27031      6.08151         0.095906     -0.120399      0.960321
O	      6.02752      6.06928      6.13441         0.073551     -0.069659      0.062451
O	      6.14057      4.10294      8.17384        -0.107581     -0.017938      0.125578
O	      8.11846      6.06442      8.27208        -0.010046      0.217896     -0.097317
O	      2.07291      6.22139      6.22196        -0.044442      0.031158     -0.031188
O	      4.04834      8.15983      6.22347         0.042140      0.333474     -0.336455
O	      4.03033      6.20499      8.16050         0.022786      0.088959      0.266186
