# total energy = -204.22221307 eV
 
CRYSTAL
PRIMVEC
0.014650 6.199145 6.202228 
6.274796 -0.007894 6.224832 
4.158577 4.122684 0.019791 
PRIMCOORD
36 1
Li	      6.20923      0.03995      6.18923        -0.039719     -0.011838     -0.074379
Li	      8.38405      8.29216     12.35655         0.063675      0.042895     -0.087877
Li	      4.25990      8.24783      8.22749        -0.029120      0.014063     -0.028657
Li	      4.24884      6.19901     10.38729         0.014245     -0.002177      0.057607
Li	      6.21472      2.05698      4.18452        -0.011561      0.001968     -0.046075
Li	      4.23867      4.07998      4.18778        -0.013704     -0.001049      0.016904
Li	      6.24093      4.07525      6.23507         0.007559      0.047860     -0.028575
Li	      6.24202      8.22501      6.34490        -0.006385      0.005235     -0.014261
Li	      6.20802      6.23545      8.31856        -0.045212      0.010599      0.036533
Mn	      2.10708      6.18004      8.24240        -0.007508      0.137447      0.013006
Mn	      8.40271      4.10559      8.23733         0.031689     -0.088377      0.054206
Mn	      6.30219      6.15700      4.20440         0.046780      0.077450     -0.028255
Fe	      8.26368      6.18927     10.42504         0.122192      0.012121      0.178723
Co	      4.19481      6.20175      6.22220         0.038883     -0.075889      0.199658
Cu	      6.31802      2.05873      8.15021        -0.080367     -0.083669     -0.417952
Cu	      4.21001      2.08523      6.20150        -0.014746      0.082235      0.244673
Cu	      4.15345      8.24676      4.18486        -0.022213      0.231859      0.185583
Cu	      8.33773      8.26785      8.31138        -0.140755      0.010970      0.073814
O	      6.35339      3.99473      8.35498        -0.164195      0.051215      0.035887
O	      4.17543      8.09159      6.13135         0.017395     -0.015390      0.116516
O	      6.34862      6.09534     10.38025        -0.078253      0.215565     -0.027635
O	      8.41493      8.15427     10.28519        -0.149802      0.006352      0.044994
O	      2.16894      2.03622      2.21204         0.085748     -0.040347      0.066965
O	      4.26252      4.23179      2.04200         0.100109     -0.093997     -0.042819
O	      4.00732      2.07431      4.25392        -0.113467      0.008095     -0.294315
O	      6.26873      4.27247      4.00916        -0.022497     -0.095888     -0.080621
O	      6.15763      2.09066      6.14613         0.232567      0.014060      0.229225
O	      8.34137      4.17652      6.38055        -0.018508     -0.041991     -0.097720
O	      2.10486      4.08222      4.01265         0.166649     -0.082383      0.006339
O	      4.23733      6.19707      4.28162         0.030703     -0.237763     -0.065722
O	      4.17044      4.17442      6.37039        -0.071743      0.036309     -0.287896
O	      6.17650      6.17639      6.09686        -0.086299     -0.063544      0.022471
O	      8.31551      6.12440      8.37193        -0.057701      0.027649     -0.044218
O	      2.22836      6.19564      6.22526        -0.030925     -0.056382      0.193718
O	      4.07812      6.22360      8.15129         0.021762     -0.030272     -0.050169
O	      6.20331      8.43738      8.36903         0.224723     -0.012989     -0.059673
