# total energy = -204.60351651 eV
 
CRYSTAL
PRIMVEC
0.018703 6.095747 6.324004 
6.143839 0.005378 6.335952 
4.095574 4.072283 0.004339 
PRIMCOORD
36 1
Li	      6.12148      6.14372     12.50851         0.020652     -0.014926     -0.004439
Li	      6.17885      4.08948      2.19068         0.029075     -0.030527     -0.017900
Li	      8.19829     10.14991     10.55529        -0.023942      0.032311     -0.037859
Li	      6.19043      2.07470      4.26173        -0.002049     -0.006727     -0.034655
Li	      8.17905      4.06201      8.33790        -0.011241      0.011776      0.026964
Li	      6.15949      6.04732      4.18849         0.035902      0.044500     -0.000817
Li	      6.20710      4.03190      6.20541        -0.032624      0.046574     -0.006578
Li	      8.17170      6.12224     10.59289         0.006239     -0.010659      0.020547
Li	      8.22342      8.14604      8.58440        -0.003405     -0.004490     -0.008883
Mn	      4.17475      4.05355      4.20984        -0.053899     -0.104541      0.148750
Mn	      8.24847      6.04287      6.35825        -0.067192      0.106158     -0.356483
Mn	      6.11896      4.09837     10.52912         0.124049     -0.086962      0.338283
Fe	      2.04077      4.15495      6.36132        -0.036401     -0.153977     -0.133054
Co	      4.03833      2.03523      2.12235        -0.139068      0.030204      0.116754
Ni	      8.14035      2.06942      6.32776         0.028421     -0.086701     -0.144019
Ni	      4.12914      6.06880      2.11312        -0.035720      0.104713      0.042058
Ni	      4.13318      6.07900      6.35618         0.062855     -0.034915     -0.096668
Ni	      6.16435      6.09621      8.48037         0.177631     -0.084843     -0.016901
O	      2.14171      2.04548      1.98991        -0.079624     -0.009862      0.190399
O	      4.04213      3.96948      2.34222         0.081095      0.175613     -0.090932
O	      4.11274      2.14335      4.26766         0.012808      0.085852      0.750531
O	      5.99762      4.07026      4.22659        -0.109051     -0.010311     -0.056406
O	      6.08400      2.01018      6.40277        -0.136155     -0.005931     -0.130969
O	      8.16653      4.18584      6.30085         0.012167      0.021980     -0.042779
O	      2.02960      4.05692      4.41799        -0.037079     -0.014515     -0.264584
O	      4.11217      6.05747      4.22060         0.002413     -0.015824     -0.049903
O	      4.10282      4.02651      6.21262         0.057510     -0.212958     -0.114067
O	      6.24782      6.22875      6.39495         0.135797     -0.175097     -0.091893
O	      6.16787      4.03983      8.67238        -0.018019     -0.011204     -0.131466
O	      8.22092      6.12766      8.23687        -0.006056     -0.018253      0.142672
O	      2.07956      6.01787      6.34072        -0.060832      0.331850      0.083323
O	      4.09496      8.11379      6.24485         0.041177      0.160779     -0.680036
O	      4.13980      6.25584      8.36125        -0.171163     -0.215327      0.181893
O	      5.99859      8.15006      8.28928         0.178621      0.159657      0.317477
O	      6.17792      5.95640     10.49356        -0.038212     -0.035934      0.184675
O	      8.32356      8.12336     10.61304         0.055323      0.032514     -0.033035
