# total energy = -207.56922423 eV
 
CRYSTAL
PRIMVEC
0.025533 6.129151 6.271776 
6.200739 0.018648 6.278808 
4.156178 4.113413 -0.009904 
PRIMCOORD
36 1
Li	     10.33316     10.21780     12.50007         0.011580     -0.010435     -0.053326
Li	      8.35262      2.21679      6.21480         0.069367      0.145084     -0.044584
Li	      8.36982     10.22201     10.49357         0.054093      0.011154      0.024811
Li	      8.29454      4.10615      8.28565        -0.020746     -0.011461     -0.070408
Li	      4.12696      4.13249      4.15942        -0.026299      0.019325     -0.002777
Li	      6.28489      4.12280      6.28407         0.026974      0.023257      0.015414
Li	      6.22871      4.15014     10.47717         0.025160     -0.015054     -0.001496
Li	      4.17429      6.15421      6.28155         0.018492      0.007343      0.017816
Li	      6.14131      6.09690      8.42552        -0.057397     -0.020591      0.040668
Mn	      6.25855      8.18044     10.49055         0.051376     -0.176519      0.027294
Mn	      6.20827      2.07532      8.35501         0.066454      0.068095      0.088039
Mn	      8.27782      6.11827      6.26391         0.019798     -0.222580      0.075283
Fe	      2.08371      0.03242      2.09897         0.072217     -0.016416     -0.216830
Co	      6.18860      6.15004      4.19108        -0.026997      0.017126      0.071228
Co	      6.21391      8.20411      6.27191        -0.222894      0.034536      0.103844
Cu	      4.18274      4.15243      8.38391        -0.063115      0.031451      0.093045
Ni	      4.15687      8.21371      8.32233        -0.040615      0.004461      0.027877
Ni	      2.09115      6.09975      4.23360         0.007245     -0.002761     -0.080304
O	      6.14014      3.98128      8.35423         0.187164     -0.044857     -0.013440
O	      2.00410      2.04459      2.01723        -0.126447      0.052371      0.086597
O	      4.22487      4.18910      2.06615        -0.111112      0.080150     -0.022778
O	      4.20603      2.06102      4.29643        -0.002580      0.041700      0.056502
O	      6.21125      4.04628      4.09810        -0.006263      0.055361      0.098164
O	      6.07308      2.08703      6.36298        -0.062960      0.013018      0.058150
O	      8.25510      4.27343      6.28219         0.023686      0.131259     -0.017167
O	      2.07401      4.05895      4.37795         0.039617     -0.075238      0.002098
O	      4.15046      6.14568      3.99233         0.039021     -0.033276     -0.097934
O	      3.99780      3.99567      6.36879        -0.022254     -0.009487     -0.108042
O	      6.34860      6.26950      6.29507         0.022007     -0.009291     -0.062109
O	      8.41980      6.17627      8.26512        -0.005756     -0.088858     -0.077517
O	      2.13386      5.94160      6.28781         0.019119     -0.100247      0.095359
O	      4.35115      8.16010      6.33885         0.193847     -0.000728     -0.186111
O	      4.10091      6.16162      8.34377         0.006007      0.021065      0.019675
O	      6.23366      8.24283      8.26053        -0.021663     -0.086481     -0.055607
O	      6.28668      6.27475     10.42911        -0.094450      0.088466      0.026915
O	      8.20976      8.16950     10.38693        -0.041676      0.079058      0.081652
