# total energy = -206.91126447 eV
 
CRYSTAL
PRIMVEC
0.006068 6.252634 6.197070 
6.097683 -0.059663 6.261559 
4.035498 4.182262 -0.009625 
PRIMCOORD
36 1
Li	      8.09366      2.16675      6.14863        -0.016407      0.035307     -0.007585
Li	      6.10150     10.37233      8.28961         0.023432      0.007378     -0.032787
Li	      8.06780      4.08866      4.29183        -0.020901      0.010104     -0.053243
Li	      8.09678      4.18869      8.17111        -0.010593      0.014347     -0.054606
Li	      8.09995      6.10731      6.34379        -0.002039     -0.040604      0.001239
Li	      6.16405      4.16241      6.24929        -0.001195     -0.000225      0.032912
Li	      8.06742      6.25100     10.35127        -0.001348     -0.029646      0.032644
Li	      8.11912      8.22610      8.26470        -0.016715     -0.029927     -0.067880
Li	      6.14389      6.23181      8.28892         0.010191      0.010776     -0.014827
Mn	      4.04291      8.29290      8.25521         0.080044     -0.018529     -0.018857
Mn	      6.05715      2.00658      8.23309        -0.093898      0.032849     -0.066607
Mn	      6.07504      6.22304      4.19753         0.104118     -0.088396      0.138767
Fe	      5.98462      4.18912     10.27116         0.151338     -0.166089      0.178533
Co	      6.08552      8.34189      6.25724         0.087124     -0.016089     -0.152402
Co	      4.02437      6.24034      6.24736        -0.139941     -0.038185      0.091796
Cu	      6.06376      0.00861      6.21726         0.195286     -0.074800     -0.010668
Cu	      6.18685      8.29512     10.37843        -0.041976     -0.060382      0.062216
Ni	      4.04433      4.18017      4.16616        -0.044777      0.038272      0.043839
O	      6.10682      6.05627     10.44656         0.008765      0.292468     -0.210432
O	      8.13869      8.28936     10.35322        -0.102633     -0.007745     -0.009926
O	      2.02538      2.06772      2.24782         0.047470      0.046950      0.048044
O	      4.03695      4.13915      2.03779         0.025220     -0.034194      0.040907
O	      4.00577      2.10995      4.00654        -0.007434     -0.083491     -0.089652
O	      6.04023      4.33808      4.21201         0.161764     -0.016573     -0.023322
O	      6.12783      1.96677      6.16335         0.045843      0.299987      0.117322
O	      8.19274      4.12856      6.23720        -0.219725     -0.037736     -0.025102
O	      1.99360      4.02513      4.32818        -0.102131      0.050546      0.080043
O	      4.13588      6.29433      4.25905         0.002625      0.056241      0.021683
O	      3.93958      4.32698      6.21009        -0.033812     -0.036882      0.160728
O	      6.00791      6.35712      6.14538         0.033135     -0.003960     -0.040665
O	      6.11482      3.98005      8.36624         0.022741     -0.090753     -0.153180
O	      8.25327      6.19436      8.31485         0.067782     -0.024966      0.007681
O	      2.09087      6.06169      6.21144        -0.009898     -0.016057      0.017656
O	      4.10932      8.23169      6.29295        -0.047545     -0.101029      0.072569
O	      4.06171      6.39363      8.14426        -0.024464      0.089689     -0.056177
O	      5.95268      8.31494      8.25277        -0.129446      0.031346     -0.060663
