# total energy = -206.35224996 eV
 
CRYSTAL
PRIMVEC
0.016962 6.242441 6.192056 
6.068234 0.035492 6.173342 
4.064614 4.168151 0.004598 
PRIMCOORD
36 1
Li	      2.01753      0.04073      2.02642         0.050576      0.074662      0.100991
Li	      6.09609      8.34162     10.31410        -0.068413      0.108325     -0.042089
Li	      0.06040      2.10501      2.06144         0.160489      0.060695      0.042515
Li	      1.99316      4.10746      2.12101        -0.106162     -0.150351     -0.041379
Li	      6.04710      6.29139      4.12520         0.057627     -0.065582      0.004586
Li	      0.07638      4.13856      4.12976         0.035376     -0.066137     -0.083538
Li	      6.07155      8.34174      6.18063         0.023331     -0.158849      0.043343
Li	      4.12590      6.27967      6.13228         0.196452     -0.052297      0.020340
Li	      6.10781      6.25149      8.17238        -0.127963     -0.076457     -0.120290
Mn	      4.05196      0.04428      4.12817        -0.260394     -0.029940     -0.402792
Mn	      4.04210      4.22781      4.10585         0.605277     -0.207474      0.029119
Mn	      8.06283      8.32707      8.25401         0.291295      0.394104     -0.560078
Fe	      4.10063      8.37229      8.20854        -0.020245     -0.317346      0.237282
Co	      0.05295      6.25576      6.20090        -0.166559      0.268853      0.123229
Co	      8.09837      6.26766     10.29084        -0.113612     -0.495384      0.021788
Ni	      2.04928      8.28944      6.21166         0.084789      0.222182      0.156660
Ni	      8.09417      6.26251      6.21869        -0.208193      0.209831     -0.074603
Ni	      6.06953      4.21493      6.22641        -0.084948     -0.253267     -0.021707
O	      2.14785      2.07605      2.01061        -0.188237     -0.011420      0.189993
O	      4.09724      4.12171      2.06147        -0.022638      0.338285     -0.315342
O	      4.05310      2.22793      4.07890         0.062335     -0.087515      0.016613
O	      6.08297      4.20457      4.27552        -0.015515     -0.106196     -0.354373
O	      6.07350      2.03003      6.19135        -0.186163     -0.223195      0.108807
O	      8.18513      4.19601      6.07085         0.225642     -0.065580      0.208575
O	      2.13435      4.31105      4.10570        -0.400431      0.193076     -0.093102
O	      3.94536      6.13371      4.13466         0.210419      0.105125     -0.015538
O	      4.04347      4.13489      6.19457        -0.254206      0.158664      0.574697
O	      6.12958      6.13034      6.19153        -0.103149      0.578173     -0.066179
O	      5.94847      4.19056      8.13429        -0.162156     -0.110946      0.680434
O	      8.08736      6.41328      8.32958        -0.042730     -0.084958      0.169905
O	      1.94298      6.29136      6.03348         0.134261     -0.139222     -0.079629
O	      4.06752      8.45966      6.23011         0.222989     -0.158178     -0.047509
O	      4.05426      6.19710      8.40655        -0.030396     -0.156617     -0.020737
O	      6.12037      8.34527      8.24386         0.213760      0.034763      0.018815
O	      6.08529      6.24849     10.46321        -0.028875      0.025581     -0.352181
O	      8.12822      8.24546     10.23845         0.016367      0.244592     -0.056623
