# total energy = -209.34775029 eV
 
CRYSTAL
PRIMVEC
-0.020878 6.241163 6.196948 
6.187220 0.008981 6.166231 
4.128040 4.144020 0.002971 
PRIMCOORD
36 1
Li	      6.07013      4.18992      2.12561        -0.014660      0.148967      0.002919
Li	      4.15357      2.14869      2.10293        -0.128524     -0.001145     -0.004573
Li	      4.09624      6.14986      2.22788         0.075004      0.016697     -0.069213
Li	      2.08923      4.19446      2.13899        -0.025307     -0.119208     -0.001310
Li	      1.98501      2.17268      3.98129         0.009912      0.057311     -0.118460
Li	      4.07942      4.17434      4.03102        -0.039879     -0.005951     -0.041327
Li	      4.09709      2.12919      6.11830         0.004200      0.050981     -0.079025
Li	      4.14683      8.18727      4.07558        -0.010939      0.013707      0.011345
Li	      8.26725      8.24739      8.25482         0.020686     -0.039121     -0.102136
Mn	      4.09879      4.17494      0.12233        -0.031214      0.027227     -0.064659
Mn	      6.13990      4.19910      6.15886         0.061708     -0.144034      0.017384
Mn	      2.10701      4.10814      6.15671        -0.008687      0.040698      0.072109
Fe	      4.10143      6.32015     10.18050         0.051571     -0.156306      0.143973
Co	      2.11501      2.08091      0.17929        -0.222357     -0.005981     -1.362156
Co	      6.17473      8.29665     10.31134         0.051233      0.026519      0.008842
Co	      2.04003      6.22959      4.15761         0.001855      0.030148     -0.058661
Cu	      6.22688      6.20026      8.23544        -0.048877     -0.025264      0.033394
Ni	      4.12950      6.22566      6.15159        -0.080754      0.156366      0.013580
O	      8.09588      6.21393      8.44489         0.108863      0.030497      0.026229
O	      2.03999      2.06344      1.94469         0.082319      0.006850      0.427311
O	      4.11111      4.17687      1.94150        -0.016907     -0.028450      0.105934
O	      4.27458      1.99488      4.07710         0.096780      0.116022      0.049557
O	      6.26055      4.00557      4.15708        -0.058154     -0.033953      0.039314
O	      6.19805      2.08995      6.06711         0.003985      0.075908      0.125434
O	      8.25418      4.12566      6.08933         0.017366     -0.179978      0.119047
O	      2.03097      4.30521      4.26331        -0.041875     -0.023963      0.023498
O	      3.93016      6.25984      4.14772        -0.032646      0.008703     -0.046277
O	      4.09478      4.15897      6.17617        -0.013377     -0.067483     -0.048745
O	      6.16064      6.24359      5.97550         0.125735     -0.066832     -0.184947
O	      6.20309      4.30988      8.07532         0.007971     -0.047023     -0.009042
O	      2.04841      6.22486      6.15735        -0.111796      0.086105      0.190838
O	      4.16467      8.39362      6.19899         0.047938     -0.075292      0.132595
O	      4.28943      6.18830      8.25364         0.031142     -0.080979     -0.019480
O	      6.21995      8.11181      8.26832         0.024135      0.093760      0.006691
O	      6.20186      6.36077     10.50579         0.033910      0.037922      0.199155
O	      8.12578      8.24249     10.44267         0.029638      0.076575      0.460862
