# total energy = -100.56010557 eV
 
CRYSTAL
PRIMVEC
0.001352 2.085507 2.102624 
9.467773 -4.496695 4.537926 
2.119973 4.158951 -2.089147 
PRIMCOORD
16 1
Li	      0.41688      2.00773      2.19062         0.002955     -0.019113      0.018259
Li	      2.44700      1.81373      0.29351         0.021185      0.019347     -0.020252
Li	      2.05411      0.07402      2.01170        -0.027042     -0.006788      0.001805
Li	      4.09422      2.24501      1.95548        -0.025316      0.040352     -0.037467
Ti	      6.97866     -0.29470      2.39285        -0.383281      0.152378     -0.159228
Ti	      9.61455     -0.32093      4.52598         0.903787     -0.123893      0.117681
Ni	      4.10546      0.14723      4.04123         0.359612     -0.048650      0.032500
Ni	      7.21249     -2.37846      4.49776         0.022389     -0.021546      0.024323
O	      7.28076      1.60669      2.59789        -0.124020     -0.162386      0.178283
O	      7.27116     -0.26151      4.46686        -0.023411      0.102915     -0.105469
O	      9.22693     -0.33971      2.44497        -0.026715     -0.093223      0.092540
O	      9.25500     -2.24092      4.34355         0.090357      0.139903     -0.138518
O	      1.89721      4.25014     -0.08939        -0.836420     -0.015974      0.012489
O	      2.24813      2.01753      2.17338         0.004358      0.001106     -0.000532
O	      4.50578      1.99899      0.11926        -0.548845     -0.063717      0.083178
O	      5.15020     -0.35785      2.46085         0.590408      0.099287     -0.099592
