# total energy = -201.98711093 eV
 
CRYSTAL
PRIMVEC
-0.032111 6.282328 6.245668 
6.175032 0.024467 6.189311 
4.129984 4.163705 0.002930 
PRIMCOORD
36 1
Li	      8.16103      8.34555     12.42154        -0.021660     -0.021003     -0.027714
Li	      4.12673      6.29145      2.12971         0.016706     -0.003252     -0.034243
Li	      4.06646      4.32733      4.28296         0.042120      0.002757      0.083056
Li	      8.21333      6.30158      6.26307         0.021451      0.014109      0.001618
Li	      6.12279      4.26492      6.21130         0.003869      0.051987     -0.004718
Li	      4.15729      8.23270      4.13298        -0.009016      0.028882     -0.011796
Li	      2.15642      6.19113      4.19919         0.036536     -0.005766     -0.002583
Li	      4.16447      6.21956      6.08823         0.017904     -0.001815      0.041325
Li	      6.19828      6.24802      8.17966        -0.007406     -0.016695     -0.040770
Mn	      6.15336      0.04178      6.17130         0.033469      0.144558     -0.078403
Mn	      4.11020      2.09515      2.04929        -0.061988     -0.052359     -0.018743
Mn	      8.20752     10.44163     10.38773         0.044513     -0.098516      0.004274
Fe	      4.26739      4.02673      8.23026        -0.099337      0.146446      0.122324
Cu	      8.12493      4.30586      8.35978        -0.015311      0.030749      0.009614
Ni	      2.03703      0.03574      2.04851        -0.020569      0.046009     -0.026176
Ni	      6.19709      2.10307      4.17780        -0.017240     -0.007091      0.001043
Ni	      6.14053      6.30613      4.18005         0.065589     -0.071411     -0.024271
Ni	      2.04753      4.18618      6.18266         0.048789      0.008908      0.028464
O	      4.26811      6.24037      4.13938        -0.208833      0.039071      0.009647
O	      2.16903      2.12993      2.16875         0.087633      0.058101     -0.104761
O	      4.07084      4.05170      1.96163        -0.090459     -0.081113      0.008993
O	      4.07941      1.98612      4.02298        -0.005509     -0.034439     -0.047971
O	      6.32302      4.15407      4.11073         0.025404      0.043587      0.083578
O	      6.18165      1.91169      6.18979        -0.033131     -0.139652      0.112174
O	      8.32795      4.15840      6.05810         0.003146     -0.012074     -0.010277
O	      2.07178      4.18624      4.16888         0.027978      0.107209     -0.184384
O	      4.07156      4.21332      6.38483         0.114154      0.034966     -0.249941
O	      6.15965      6.37575      6.06140         0.025106     -0.166939      0.255323
O	      6.15820      4.23096      8.23915         0.186137      0.026661     -0.010685
O	      8.20168      6.30301      8.34671        -0.004264     -0.163030     -0.023239
O	      1.86861      6.23148      6.25796        -0.110157      0.113224     -0.074414
O	      4.06854      8.45823      6.39184        -0.100372      0.014295      0.039013
O	      4.07967      6.41686      8.41177         0.079263      0.056733      0.041935
O	      6.03187      8.40660      8.31409        -0.083040     -0.080218      0.004015
O	      6.01842      6.31852     10.50157        -0.073553     -0.103928      0.036332
O	      8.20699      8.53077     10.21260         0.082078      0.091047      0.092361
