# total energy = -201.64422928 eV
 
CRYSTAL
PRIMVEC
-0.002865 6.080481 6.405801 
6.132868 -0.030778 6.433807 
4.089111 4.072163 -0.019650 
PRIMCOORD
36 1
Li	     10.18469      4.10026      6.51010         0.016280     -0.011625      0.002236
Li	      6.10473      4.08116      2.12887         0.066039     -0.005800     -0.016824
Li	      8.16825      4.03771      4.37443         0.001933      0.021072      0.026922
Li	     10.16966      6.15789      8.63378        -0.039394      0.015174     -0.035945
Li	      6.10389      6.03283      4.26560         0.032908      0.030756      0.039140
Li	      8.17172      6.03814      6.55788         0.083139     -0.028553     -0.011439
Li	      6.19880      3.98439      6.47680        -0.051004     -0.021662     -0.003069
Li	      0.06911      3.95623      4.13566        -0.129142     -0.002673      0.009418
Li	      8.14148      6.11290     10.66336         0.014978     -0.032428      0.035490
Mn	      8.07462      2.01419      6.45147         0.019189     -0.047238      0.019581
Mn	      4.13233      8.09081      8.49764        -0.137855      0.036754      0.014102
Mn	      2.03480      4.07381      6.30444        -0.052245      0.052342      0.040630
Fe	      4.11869      4.13144      4.22800        -0.083640     -0.124890     -0.002002
Cu	      6.12087      2.01000      4.30849         0.022775      0.027282      0.019221
Cu	      4.14351      4.04591      8.55277        -0.120436     -0.090458      0.207080
Ni	      8.14095      4.04272      8.58230        -0.258861      0.118755      0.056001
Ni	      4.09301      6.05742      6.30211         0.039538      0.048924     -0.002215
Ni	      6.15693      6.09540      8.53588        -0.072569      0.031269     -0.086047
O	      6.07419      4.09311      8.61827         0.332896     -0.157408     -0.050252
O	      6.11539      6.24733     10.46596        -0.011479     -0.084283      0.212736
O	      2.23319      1.98382      2.02728         0.039114     -0.066700      0.073643
O	      4.04676      3.91966      2.20717         0.103397     -0.061910     -0.075257
O	      4.23302      2.00606      4.01360        -0.045445     -0.027695      0.051978
O	      6.06766      3.89722      4.31968         0.189191      0.073531      0.002236
O	      6.26762      1.96103      6.64355        -0.017107      0.013897      0.011647
O	      8.18234      3.89087      6.54089        -0.024738      0.031577     -0.123293
O	      2.06064      4.00450      4.37299        -0.016671      0.010351     -0.022689
O	      4.12310      6.02732      4.23770         0.041970      0.178852     -0.100808
O	      3.92489      4.01822      6.25543         0.023627     -0.133232      0.080633
O	      6.12028      6.21943      6.48091         0.186372      0.017848     -0.102180
O	      8.03968      6.15159      8.56374         0.410647     -0.246403     -0.012357
O	      2.05873      6.06584      6.36948        -0.126426      0.008833      0.015161
O	      4.10895      8.12099      6.51165        -0.008453      0.116703      0.006384
O	      4.23283      6.09910      8.43125        -0.219379      0.288311      0.011473
O	      6.13138      8.18154      8.25094        -0.266789      0.045917     -0.175722
O	      8.00046      8.12848     10.96574         0.057639     -0.025190     -0.115614
