# total energy = -200.92986874 eV
 
CRYSTAL
PRIMVEC
0.004412 6.111027 6.128249 
6.294571 -0.007697 6.140253 
4.201893 4.087623 -0.010527 
PRIMCOORD
36 1
Li	     10.43423      4.08299      6.09326        -0.051725      0.068837     -0.013255
Li	      8.31586      4.04573      4.12420        -0.052815     -0.005074     -0.025697
Li	      6.33845      2.11798      4.05616         0.008243     -0.005876      0.106667
Li	      8.35905      4.09418      8.20003        -0.029409      0.012465     -0.023730
Li	      2.13269      2.00767      4.08640        -0.013138      0.042798     -0.033929
Li	      4.25866      4.05345      4.12528         0.107626      0.021242      0.012819
Li	      6.31193      4.08928      6.04190         0.026289     -0.058299     -0.011430
Li	      2.12141      4.06891      6.08875         0.013047     -0.004546     -0.028319
Li	      8.39139      8.15806      8.20315         0.068810     -0.029644      0.011953
Mn	      0.03252      2.04041      2.03729         0.096430      0.166242     -0.017011
Mn	      4.18875      2.01132      6.07900         0.097085      0.043519     -0.080921
Mn	      4.22677      6.03371      6.12833         0.199045     -0.005077     -0.419618
Fe	      4.20936      2.11466      2.18519        -0.524874     -0.014949     -0.276620
Cu	      6.31412     10.14731      8.18859        -0.136070      0.015088     -0.300919
Cu	      6.31349      4.08845     10.22781        -0.072316     -0.189224      0.409933
Cu	      6.31294      6.09326      8.19338        -0.185634      0.061677     -0.169221
Ni	      8.38148      2.10879      6.10457        -0.188659      0.104457      0.085206
Ni	      8.37109      6.09176     10.21573         0.117609      0.039859      0.067033
O	      6.14852      8.08125      8.20644         0.526289     -0.037948     -0.054474
O	      6.38184      6.03665     10.10894        -0.264165      0.159728     -0.189912
O	      8.46903      8.06690     10.27867         0.183150      0.192934     -0.298699
O	      2.02872      2.08265      1.98174         0.175553      0.004953      0.248117
O	      4.26043      4.10551      2.02887         0.215979     -0.120104      0.000931
O	      4.15741      2.06123      4.12617        -0.005139     -0.009116      0.148562
O	      6.32768      4.07746      3.90365        -0.042854     -0.039329      0.174886
O	      6.25801      2.05241      6.26048         0.045903      0.012767     -0.217764
O	      8.39613      4.18937      6.08260        -0.017533      0.060931      0.047992
O	      1.97722      4.16525      4.09234        -0.039070     -0.347545      0.027585
O	      4.15575      6.15148      4.07446         0.137916      0.044079     -0.019592
O	      4.21610      4.12650      6.11929         0.000050     -0.123444      0.065712
O	      6.30814      6.09708      6.23822        -0.050995      0.014216      0.163092
O	      6.29929      3.98012      8.27126         0.003201      0.121785     -0.259401
O	      8.59564      6.11438      8.06312        -0.172759     -0.009057      0.015164
O	      2.23404      6.12956      6.22061        -0.359866     -0.134597      0.136044
O	      4.15483      8.02155      6.15590         0.198172      0.088597      0.210990
O	      4.11217      6.16861      8.08106        -0.013378     -0.142344      0.507826
