# total energy = -201.74924740 eV
 
CRYSTAL
PRIMVEC
0.022306 6.344235 6.196897 
6.113822 0.014016 6.205449 
4.105437 4.265579 -0.020733 
PRIMCOORD
36 1
Li	      4.17112     10.54019      6.24114         0.023341      0.014647      0.045938
Li	      4.10287      2.18564      2.04071         0.021368      0.002631      0.008006
Li	      4.09124      6.31587      2.11387        -0.078883      0.047847      0.016416
Li	      6.09014      6.43136      4.19146         0.010533      0.022160      0.037096
Li	      4.06751      4.33415      4.17025        -0.028388      0.079143      0.014905
Li	      4.05828      2.29530      6.16935         0.013439     -0.019807      0.007490
Li	      2.13227      4.20621      6.18432        -0.040240     -0.006952     -0.021229
Li	      4.09214      6.30493      6.10132        -0.009079     -0.012255     -0.080863
Li	      4.06102      4.27345      8.14101         0.063326     -0.028188     -0.057251
Mn	      2.10092      2.13895      0.05055        -0.087053     -0.033131     -0.061122
Mn	      6.12477      8.45843     10.30953         0.101076     -0.138906      0.022140
Mn	      2.14445      4.27177      2.05677        -0.271712      0.200265      0.075942
Fe	      6.09943      6.37617      8.11884         0.160885     -0.135524      0.176514
Cu	      6.09327      4.25055      2.03479         0.221567     -0.059969      0.216748
Cu	      4.07966      0.07212      4.15696         0.105866     -0.164557      0.230624
Cu	      6.01971      4.28387      6.19193         0.108875     -0.092058     -0.227163
Cu	      2.12507      6.33360      4.15597        -0.148115      0.007627     -0.109634
Ni	      4.13886      8.40053      4.14346         0.038429      0.184932     -0.255574
O	      6.12783      6.29337      6.19888        -0.083987      0.026163     -0.292477
O	      2.05520      6.55809      6.34002         0.036022      0.006087     -0.059232
O	      3.98833      8.52251      6.13197         0.029747      0.011852      0.255474
O	      4.14011      6.32968      8.42772        -0.453588     -0.026306     -0.205478
O	      2.05473      2.32251      1.93995         0.008162     -0.124004      0.038352
O	      4.02224      4.28379      2.04450         0.138920     -0.024250     -0.026018
O	      4.26011      2.01754      4.16727        -0.110757      0.101214      0.004939
O	      6.13637      4.05041      4.01030        -0.161357      0.063757     -0.222440
O	      6.22682      2.22453      6.06032        -0.023428      0.104279     -0.029720
O	      8.11260      4.11595      6.21796        -0.188322      0.019406     -0.043073
O	      2.03974      4.26443      3.97860         0.164306     -0.035446      0.048904
O	      3.99387      6.42903      4.09543         0.189566     -0.194071      0.014310
O	      4.12654      4.25262      6.20052        -0.019869      0.021116     -0.034446
O	      6.24814      4.34882      8.28058         0.105107     -0.097948      0.360023
O	      8.11759      6.20736      8.20538         0.248539      0.014247      0.014357
O	      6.18120      8.34138      8.38431         0.003508      0.151989      0.010599
O	      6.26840      6.47330     10.33350         0.002908      0.054225      0.054496
O	      8.14454      8.46705     10.45597        -0.090711      0.059784      0.072448
