# total energy = -201.64658938 eV
 
CRYSTAL
PRIMVEC
0.025785 6.084150 6.254292 
6.331208 0.029097 6.249775 
4.263470 4.095423 -0.023485 
PRIMCOORD
36 1
Li	      4.21143      4.07821      0.05194         0.010024      0.016588      0.001591
Li	      6.29319      4.13752      2.14295        -0.046626      0.056742     -0.032791
Li	      4.21852      2.06494      2.11572        -0.091931      0.078512     -0.014999
Li	      4.14778      0.05633      4.09911        -0.021627     -0.031975      0.035263
Li	      2.21626      4.05139      2.09978         0.035632     -0.010109     -0.020473
Li	      2.19724      1.97946      4.12722         0.008957      0.058115     -0.025940
Li	      4.26381      4.08540      4.07830        -0.001469     -0.011459     -0.036727
Li	      6.40164      4.13347     10.39582         0.008071      0.018640      0.072125
Li	      6.26694      6.10347      8.35096         0.026731     -0.078178      0.012831
Mn	      8.45524      2.13820      6.27592        -0.038315     -0.181818     -0.054080
Mn	      2.16766      6.07519      4.17814        -0.035900     -0.189421      0.242583
Mn	      4.26946      6.09999      6.27962        -0.378484      0.163595     -0.206684
Fe	      6.31022      8.17830     10.27146         0.093748     -0.134845      0.261048
Cu	      4.29983      6.10347      2.08666         0.186276     -0.125712      0.049180
Cu	      4.24632      2.01645      6.19544        -0.022270     -0.150368     -0.016374
Cu	      6.37742      4.09805      6.16832         0.009654      0.176472      0.003302
Cu	      6.37521      8.13585      6.28076        -0.032770     -0.019196     -0.037408
Cu	      4.25651      4.10141      8.35581        -0.097270      0.036187      0.085996
O	      6.18292      6.11129      6.22956         0.070802      0.131331      0.006806
O	      6.29168      3.93588      8.23497        -0.231761      0.118369     -0.041933
O	      8.67807      6.18155      8.41584        -0.027061      0.089829      0.116768
O	      4.24494      6.03335      8.19024         0.029266     -0.096201      0.078082
O	      6.45994      8.14879      8.26050         0.223771     -0.003100      0.049054
O	      1.95108      2.05003      1.94483        -0.041966      0.019167      0.215025
O	      4.25968      4.25681      2.04751         0.003324     -0.137096      0.078569
O	      4.31663      2.00995      4.26019         0.011971      0.009736     -0.338481
O	      6.40790      4.04844      4.16804        -0.029277      0.075274     -0.067611
O	      6.50430      2.12184      6.06595         0.033862     -0.229011     -0.093632
O	      8.41120      4.07717      6.23819         0.132381      0.302691      0.013711
O	      2.10260      4.19217      4.33899         0.023127      0.003154     -0.114845
O	      4.10681      6.15090      4.36059        -0.009964     -0.037409      0.053759
O	      4.35430      4.10456      6.13848        -0.041191     -0.008834      0.092996
O	      2.23804      6.15455      6.15422         0.086418     -0.020357     -0.005032
O	      4.08080      8.04344      6.36179         0.114253      0.034683      0.036463
O	      6.59129      6.17276     10.36466         0.039026      0.035608     -0.104669
O	      8.49694      8.08037     10.57541         0.000586      0.040395     -0.293476
