# total energy = -200.46808347 eV
 
CRYSTAL
PRIMVEC
-0.043526 6.236989 6.228117 
6.262690 0.001415 6.183113 
4.180453 4.133512 -0.004407 
PRIMCOORD
36 1
Li	      4.15830     10.30265      6.19983         0.017729     -0.023539     -0.051803
Li	      2.14470      8.23931      6.21881         0.047085     -0.049926     -0.021411
Li	      2.10572      6.20499      8.15943         0.052654     -0.011259     -0.075844
Li	      4.22326      6.13713     10.30827         0.066359     -0.013609     -0.019144
Li	     10.33744      8.38504     10.36091        -0.060175      0.116260      0.044840
Li	      6.18700      8.35410      6.27410        -0.018324      0.011044      0.028935
Li	      4.07645      6.28428      6.30212        -0.066625      0.031526      0.000184
Li	      4.17126      4.22566      8.28889        -0.011756      0.039518     -0.000944
Li	      6.15513      6.20793      8.28903        -0.043254      0.037619      0.002087
Mn	      6.28448      8.24979     10.30409         0.043611     -0.024837     -0.064982
Mn	      4.15684      4.13713      4.14433         0.010746     -0.047858      0.058322
Mn	      8.34231      6.18997      6.23507        -0.026491      0.021185     -0.032504
Fe	      6.19870      6.21489      4.12085         0.072305     -0.032665      0.098187
Ni	      4.16091      8.25521      8.17571        -0.048550      0.057385      0.055438
Ni	      6.27913      2.07990      8.21511         0.059514     -0.093127     -0.052966
Ni	      2.02883      6.26355      4.22746         0.044667     -0.051546     -0.071159
Ni	      8.30328      4.15046      8.23664         0.027491     -0.017865     -0.007430
Ni	      6.25770      4.16511      6.26233        -0.022802      0.007590     -0.013355
O	      2.05363      6.22184      6.17168         0.007260      0.016209      0.153802
O	      4.14939      8.29814      6.24397        -0.013087      0.013563     -0.192670
O	      4.13008      6.36644      8.26568         0.011927     -0.130976      0.033026
O	      2.09424      2.09187      2.17555         0.019950     -0.092964     -0.120277
O	      4.12501      4.08345      2.21322         0.036290     -0.032154      0.045304
O	      4.20545      2.16510      4.19572         0.015994     -0.010730      0.061049
O	      6.10652      4.10764      4.16109        -0.064799     -0.064648     -0.082172
O	      6.11787      2.09366      6.11326        -0.036257     -0.131799     -0.088280
O	      8.31110      4.30581      6.18450         0.130414      0.017221     -0.108109
O	      2.22500      4.11621      4.12582         0.041194     -0.001146      0.095161
O	      4.20259      6.04615      4.12648        -0.071022      0.013080      0.050717
O	      4.18255      4.02660      6.08619        -0.082226     -0.029745     -0.053920
O	      6.42141      6.20364      6.09170         0.059185      0.130273      0.118726
O	      6.28806      4.08423      8.27834        -0.070295      0.115848      0.176968
O	      8.40593      6.20607      8.13655        -0.071081      0.086515      0.017684
O	      6.15525      8.31519      8.45201         0.082912      0.013755      0.054672
O	      6.27507      6.38762     10.33530        -0.124242      0.036372     -0.017970
O	      8.13219      8.30546     10.32493        -0.016304      0.095429     -0.020157
