# total energy = -198.72294026 eV
 
CRYSTAL
PRIMVEC
0.003775 6.188797 6.177847 
6.161695 -0.026196 6.208035 
4.098568 4.136587 -0.008299 
PRIMCOORD
36 1
Li	      6.15686      6.18117     12.32451         0.006720      0.018909      0.029234
Li	      8.18426      8.23112     12.31165        -0.045679      0.002381     -0.007093
Li	      6.20634      8.14805     10.33413        -0.015714     -0.062811      0.044214
Li	      4.08922      6.23368      2.12617        -0.003692     -0.000137      0.027789
Li	      6.08261      6.20160      4.11675        -0.025524      0.038933     -0.013986
Li	      4.08102      4.24960      4.09795        -0.018374      0.080702     -0.002244
Li	     10.20370      8.23958     10.28527         0.036660     -0.008047     -0.012333
Li	      2.08399      6.21860      4.11483         0.006835      0.027533     -0.010235
Li	      6.17209      6.10626      8.33209         0.027165     -0.031647      0.025807
Cr	      2.02497      0.07170      2.09832        -0.131881      0.073060     -0.083160
Cr	      8.27168      6.14315      6.21931         0.103402      0.119988      0.025328
Cr	      2.01401      4.11225      6.05509        -0.076333      0.012515     -0.143018
Cu	      8.26645     10.26372     10.32416        -0.080020      0.026449      0.105237
Ni	      4.13488      2.06362      2.13462         0.017821      0.007939      0.012157
Ni	      2.03950      4.12417      2.16252        -0.035748      0.010661      0.050003
Ni	      6.15694      4.11956      6.18189        -0.054466     -0.039011     -0.042444
Ni	      4.09298      6.19580      6.11540         0.074109     -0.023048     -0.035075
Ni	      8.25630      8.24186      8.31148         0.010452     -0.083834     -0.052991
O	      6.00662      6.16216     10.32347         0.159054     -0.020777     -0.005114
O	      8.22273      8.39756     10.28105        -0.017885     -0.089478      0.166395
O	      2.08525      1.94806      2.03047        -0.105201     -0.210327      0.021572
O	      4.15381      4.06829      2.14616         0.168758      0.144220      0.020511
O	      4.10247      1.84804      4.24602         0.006527      0.037903      0.020857
O	      6.31638      4.07809      3.98079        -0.031950     -0.037572     -0.113709
O	      5.99253      2.09691      6.17578        -0.022812     -0.136736     -0.000890
O	      8.16532      4.20340      6.36645         0.144617     -0.091813     -0.172428
O	      2.06344      4.15237      4.21439         0.016090     -0.013709      0.205719
O	      4.09076      6.20714      4.26024         0.002075      0.015069     -0.281170
O	      4.04179      4.07008      6.19175        -0.107381     -0.065044     -0.108730
O	      6.23195      6.24236      6.15431         0.035559      0.098016     -0.025781
O	      6.15710      4.09311      8.18650         0.066687      0.018814      0.146952
O	      8.18638      6.20096      8.11985        -0.031677     -0.028219      0.006702
O	      2.05964      6.10220      6.26729        -0.109281      0.030153      0.064761
O	      4.26440      8.16804      6.23632         0.062411      0.142750     -0.090811
O	      4.04117      6.19577      8.04211        -0.029865     -0.005354      0.227460
O	      6.20478      8.39902      8.09281        -0.001456      0.041568      0.000515
