# total energy = -197.71449473 eV
 
CRYSTAL
PRIMVEC
-0.019321 6.227530 6.234932 
6.070908 -0.006635 6.221661 
4.038140 4.134001 0.004713 
PRIMCOORD
36 1
Li	      6.01319      6.16633     12.36160         0.044076     -0.021341     -0.000868
Li	      8.12911      8.26121     12.36922        -0.055090     -0.072220      0.053787
Li	      4.07853      6.18036     10.38147        -0.032177      0.011124      0.030678
Li	      1.98470      4.15934      2.16216         0.029219     -0.032990     -0.018987
Li	      2.01914      2.16640      4.18022        -0.053793     -0.092260     -0.000185
Li	      1.97036      6.21375      4.25301         0.043339      0.005400      0.031246
Li	      1.97986      4.12477      6.16168        -0.031128      0.052677      0.046750
Li	      4.04679      6.27796      6.16400        -0.002441     -0.002596     -0.010444
Li	      8.08892      8.22765      8.37049        -0.024184     -0.002256     -0.019976
Cr	      2.05404      6.21398      8.18178         0.127237     -0.049285     -0.353963
Cr	     10.08836      6.20620      8.31090         0.108175      0.119092      0.016831
Cr	      6.10716      4.16521      6.21166        -0.106578      0.007202     -0.077212
Cu	      4.00038      2.09158      2.02496        -0.088970      0.058689     -0.124245
Cu	      4.02644      8.32248      4.27556         0.051183     -0.002047     -0.317139
Ni	      6.10674      8.24488     10.41939         0.582403      0.366225      0.114465
Ni	      3.97109      4.17367      4.20336        -0.053369      0.135232      0.006682
Ni	      4.03328      2.07913      6.20851        -0.079557     -0.033382      0.121574
Ni	      6.05434      6.21764      8.33028         0.030971     -0.057870     -0.142644
O	      4.01167      8.30071      6.18565         0.010957     -0.005525      0.491897
O	      8.14231      8.27118     10.36722         0.347453     -0.024617     -0.025155
O	      2.02346      1.94479      2.06782        -0.060861      0.050148     -0.010082
O	      4.15040      4.14565      2.14375         0.002124      0.128315      0.027770
O	      4.09832      2.14816      4.29876        -0.489662     -0.448283     -0.745024
O	      6.02230      4.06826      4.22456         0.041411      0.283233      0.102816
O	      6.06833      2.13741      6.27782         0.244501      0.046778     -0.165308
O	      7.95195      4.24525      6.20043         0.175535     -0.226282     -0.039327
O	      1.94051      4.15044      4.15669        -0.457743      0.043597     -0.067739
O	      3.99077      6.20629      4.03121         0.030013      0.353874      0.160567
O	      4.16100      4.06397      6.20655        -0.058043      0.202981      0.191754
O	      6.07406      6.10549      6.29463        -0.271969      0.014388     -0.038908
O	      6.05154      4.07643      8.16961         0.017442     -0.011628     -0.115605
O	      8.12367      6.18061      8.11297        -0.048009      0.046825      0.499848
O	      2.00312      6.17738      6.41987         0.034027     -0.003537      0.234177
O	      3.92436      6.34184      8.35302        -0.025391     -0.122232      0.052352
O	      5.95399      8.34143      8.35953         0.102917     -0.006335      0.009823
O	      6.07503      6.24436     10.32596        -0.084021     -0.711096      0.079795
