# total energy = -198.82076494 eV
 
CRYSTAL
PRIMVEC
-0.013201 6.108940 6.426266 
6.109486 -0.016928 6.428477 
4.059856 4.061898 0.001400 
PRIMCOORD
36 1
Li	      0.04526      6.06778      6.34509        -0.000341     -0.000061     -0.100515
Li	      4.06616      8.07929      8.46514         0.040115     -0.058784     -0.140984
Li	      6.18582      8.11727     10.79600         0.062962     -0.073338      0.058085
Li	      6.04584      2.07408      8.51648        -0.027182      0.034051     -0.033927
Li	      4.08951      2.03246      6.44507         0.010382      0.012972      0.087066
Li	      3.99482      8.12414      4.38863        -0.084192      0.040804      0.045954
Li	      8.12998      6.19233     10.72777        -0.073950      0.154892      0.034170
Li	      4.02862      6.12148      6.48252         0.003687      0.035083      0.061171
Li	      8.13671      8.08918      8.67248        -0.015236     -0.043201      0.112607
Cr	      8.15143      4.05656      8.55788        -0.172982      0.115280     -0.125311
Cr	      4.08762      4.05311      4.26068        -0.031097     -0.049123      0.086177
Cr	      6.07074      6.09601      8.73763         0.102600     -0.061675      0.008312
Cu	      2.06057      6.07565      8.47646         0.090300     -0.100540     -0.064428
Cu	      2.01298      2.01494      4.24260        -0.018983     -0.028926     -0.020497
Cu	      6.08382      4.06974      6.46641        -0.020658      0.051013     -0.029634
Ni	      8.14364      8.12613     12.80818         0.093239     -0.081791     -0.090776
Ni	      4.07531     -0.00681      4.28614         0.196380     -0.012348      0.117731
Ni	      6.01222      8.10305      6.41460        -0.059188     -0.028895      0.005541
O	      2.00442      6.06687      6.55415         0.065965     -0.126054      0.035306
O	      3.99637      8.14629      6.41284         0.051292      0.007832     -0.034460
O	      8.14263      8.18680     10.90782        -0.010558     -0.172735     -0.177716
O	      1.98311      2.22469      1.89649        -0.031344     -0.057350      0.246666
O	      3.95017      4.09163      2.28721         0.051693      0.009693      0.025233
O	      3.94103      2.10260      4.23185        -0.205222      0.099948     -0.048562
O	      6.06664      4.12712      4.00978        -0.113498      0.179014     -0.098808
O	      6.19074      2.19597      6.38907        -0.162877      0.045047      0.053661
O	      8.01628      4.11529      6.52796         0.007837      0.114281      0.022573
O	      2.10111      3.97408      4.25150        -0.037183     -0.179275     -0.061572
O	      4.15358      5.92123      4.25636         0.256147      0.111221     -0.045068
O	      4.17657      4.01144      6.16636        -0.033258     -0.009272     -0.096602
O	      6.05340      5.97003      6.67907         0.032270     -0.030298     -0.068120
O	      6.21240      4.16179      8.70543         0.030435     -0.026232      0.088598
O	      8.07080      5.96893      8.64510         0.157239      0.007512      0.113221
O	      4.11823      6.02259      8.69090        -0.313820      0.017220     -0.147685
O	      6.14016      7.92294      8.39906         0.002520      0.180486      0.161249
O	      6.06516      6.18178     10.58879         0.156504     -0.076449      0.021339
