# total energy = -198.77213329 eV
 
CRYSTAL
PRIMVEC
0.021052 6.106164 6.363718 
6.092452 0.021833 6.363451 
4.094693 4.103845 -0.018346 
PRIMCOORD
36 1
Li	      4.05493      4.08207      0.00769        -0.078243     -0.097943     -0.009140
Li	      4.16931      8.15984      8.47593        -0.021396      0.059441     -0.041784
Li	      8.13500      4.15279      8.49094         0.072463     -0.038287      0.048423
Li	      4.06288      4.07641      4.26922        -0.072335      0.027487      0.018834
Li	      8.19377      6.13776      6.37214         0.062450      0.004605      0.010786
Li	      6.12720      4.11514     10.58425        -0.000426      0.052947      0.080843
Li	      6.09379      8.19897      6.40322        -0.075572      0.015254     -0.018731
Li	      4.06891      4.06782      8.41717         0.009335     -0.048121      0.037867
Li	      6.11896      6.19914      8.45983         0.037378      0.092330      0.058234
Cr	      8.15190      8.16692     12.70722        -0.074826      0.217074      0.017143
Cr	      2.03429      2.11321      4.28764         0.037020      0.155063     -0.187209
Cr	      2.07181      6.06336      4.21382        -0.093322     -0.060395     -0.109926
Cu	      4.14257      6.12053     10.54631         0.191441     -0.140192     -0.029975
Cu	     10.15481      6.12879      8.45609         0.046264     -0.012787      0.059695
Cu	      6.12844      4.13504      6.42007         0.012706     -0.379068      0.172330
Cu	      4.11591      6.13393      6.42790        -0.241113      0.143002     -0.222562
Ni	      6.12482     10.18856      8.45682         0.317616     -1.037408      0.047819
Ni	      6.06677      2.09847      4.17014         0.022512     -0.196597     -0.049296
O	      8.28804      6.12730      8.59414        -0.132571      0.026051      0.012734
O	      3.98785      8.05429      6.43178         0.215743      0.254980      0.085342
O	      3.95086      6.12361      8.45006         0.668206      0.240396     -0.012052
O	      6.12457      8.31372      8.58211        -0.142469     -0.277763     -0.529654
O	      1.89108      1.93073      2.09318        -0.065756      0.750377      0.133150
O	      4.20002      4.22897      2.07301        -0.699246      0.110767      0.009039
O	      4.00780      1.98199      4.20387        -0.081579      0.081469     -0.026149
O	      6.21295      4.17884      4.19217        -0.026317      0.090179     -0.025908
O	      6.13637      2.09049      6.13315        -0.075302      0.412299      0.540416
O	      8.04862      4.03565      6.36568         0.155490      0.082125     -0.180477
O	      2.06002      4.07839      4.23296        -0.009166     -0.077760      0.063359
O	      4.10316      6.14151      4.38263         0.068571     -0.023395      0.102882
O	      4.24564      4.22867      6.37475        -0.094788     -0.227599      0.010743
O	      6.13551      6.16051      6.26701         0.053861     -0.238053      0.042878
O	      6.11320      3.88187      8.42759        -0.023021      0.233438     -0.251650
O	      2.06615      6.13135      6.28230         0.041869     -0.015553      0.171053
O	      6.15998      6.17843     10.51577        -0.179559     -0.257943      0.065856
O	      8.16051      8.14797     10.70822         0.174084      0.079581     -0.094911
