# total energy = -225.08833920 eV
 
CRYSTAL
PRIMVEC
-0.064269 6.455096 6.245608 
6.366909 -0.043763 6.223011 
4.219447 4.263112 -0.003418 
PRIMCOORD
36 1
Li	      4.32751      4.12653      0.24058         0.002988     -0.068242      0.016536
Li	      6.11603      4.45671      2.11134        -0.011490      0.037156     -0.001048
Li	      4.07670      2.34049      2.18934         0.005501      0.019997      0.046375
Li	      8.31668      4.35978      4.13050         0.017935      0.053183     -0.010968
Li	      6.22639      2.24158      4.10120        -0.033991      0.021768     -0.019780
Li	      4.41576      6.13830      2.07069         0.051130     -0.012494     -0.009914
Li	      2.34700      4.07912      2.11994        -0.009567     -0.047001      0.018785
Li	      2.20353      2.06515      3.92894         0.039753     -0.010195     -0.004990
Li	      4.30277      4.14109      3.95588        -0.037550     -0.037651      0.010709
Mn	      6.35420      4.22450      6.15189         0.003794     -0.135497     -0.085248
Mn	      4.16139      6.47031      6.23181         0.015921      0.021493     -0.015356
Mn	      6.30208      6.41808      8.32933         0.078125     -0.010600      0.101624
Cr	      6.33776      4.26367     10.37165         0.106762      0.082331      0.023599
Cr	      8.39229      8.54014      8.33434        -0.029792     -0.057496     -0.058538
Fe	      4.31763      2.03118      6.07426        -0.053189      0.073397      0.148744
Fe	      2.08442      6.38561      4.18347        -0.101414      0.058101     -0.141233
Co	      2.06102      4.29894      6.22539         0.102752      0.033206     -0.026925
Co	      2.09153      2.17748      0.11491         0.018872      0.043063      0.077930
O	      4.23250      4.26786      2.07628        -0.001926      0.032784      0.011911
O	      2.11272      2.12590      2.03954         0.011950     -0.006442     -0.075082
O	      4.22384      2.10402      4.24657        -0.012038     -0.001555     -0.146200
O	      6.31256      4.27751      4.32979         0.003462     -0.009307      0.153721
O	      6.28394      2.31767      6.25203         0.095938      0.150822      0.031173
O	      8.25774      4.31450      6.24719        -0.109011     -0.066951     -0.003044
O	      1.98109      4.40351      4.19540        -0.042197     -0.046175      0.016691
O	      4.11491      6.54939      4.29874         0.045728      0.022381      0.024564
O	      4.27780      4.22045      6.31323         0.092022     -0.045151      0.053736
O	      6.32075      6.30128      6.35455        -0.041179     -0.034240      0.009422
O	      6.19879      4.43648      8.30439        -0.022513      0.055485     -0.042676
O	      8.26054      6.51130      8.31234        -0.050930      0.029727     -0.007439
O	      2.13146      6.43300      6.17850         0.061915     -0.038389      0.091118
O	      4.20585      8.55824      6.13159        -0.095769      0.044839     -0.016816
O	      4.33509      6.30894      8.19562         0.013161     -0.028378     -0.016191
O	      6.39328      8.34374      8.26491        -0.048061     -0.063539     -0.004459
O	      6.37635      6.30854     10.24244        -0.045100     -0.032072     -0.115260
O	      8.51238      8.45283     10.34050        -0.021991     -0.028360     -0.035472
