# total energy = -227.94135464 eV
 
CRYSTAL
PRIMVEC
0.003083 6.506588 6.320643 
6.163089 0.028234 6.296310 
4.096019 4.309048 0.031103 
PRIMCOORD
36 1
Li	      4.09961      4.30890      0.13985         0.001252      0.014908     -0.002151
Li	      6.02849      4.38688      2.17854         0.002353      0.075232     -0.001732
Li	      4.06256      2.35097      2.19661         0.046722      0.018041     -0.007500
Li	      4.14246      6.33159      2.16688        -0.034100     -0.002569      0.031748
Li	      2.10537      2.14557      4.18236        -0.036211     -0.038460     -0.023983
Li	      4.12692      4.23053      4.19181        -0.019924      0.030411      0.043531
Li	      4.10589      2.30495      6.20267         0.036575      0.054686      0.011881
Li	      6.13034      4.33842      6.19145         0.009276      0.033281      0.008137
Li	      2.05883      4.32760      6.26049        -0.027836     -0.007703      0.013858
Mn	      4.08475      0.11345      4.24767         0.038758      0.017439      0.046314
Mn	      6.11044      2.27238      4.24018        -0.014397     -0.024933      0.056051
Mn	      2.09722      4.28582      2.08778        -0.068577     -0.029152      0.015344
Cr	      2.04667      6.44181      4.27174        -0.016375     -0.018254     -0.037984
Cr	      4.14569      4.32341      8.36527         0.036859     -0.059864      0.006718
Fe	      2.01716      2.13209      0.13538         0.012162     -0.038825     -0.131303
Fe	      4.12676      6.46839      6.30043         0.041301      0.035319      0.017245
Fe	      6.16943      6.54162      8.32375         0.058184     -0.060227      0.162296
Co	      4.11300      8.61467      4.26592         0.004786      0.022495     -0.018458
O	      2.03723      2.22364      2.03284         0.014230     -0.033752      0.202085
O	      3.93813      4.34328      2.14774         0.055796     -0.015081     -0.011316
O	      4.21531      2.19364      4.21470        -0.030670     -0.040591     -0.016889
O	      6.30239      4.36238      4.18995        -0.001237      0.007677      0.013036
O	      6.21727      2.15596      6.13683        -0.077833      0.031918     -0.045483
O	      8.20045      4.20345      6.26466        -0.001943      0.015532      0.022316
O	      1.93598      4.45440      4.18589        -0.036168      0.035656     -0.005258
O	      4.04429      6.64795      4.29312        -0.009114      0.075894     -0.126749
O	      4.11245      4.47165      6.40935        -0.005065     -0.071066      0.027302
O	      6.11080      6.55183      6.42135         0.074380     -0.022560     -0.153305
O	      6.21264      4.43828      8.54954        -0.004519     -0.007349      0.032136
O	      8.18371      6.56788      8.51692         0.041417      0.056949     -0.026359
O	      2.08778      6.56494      6.27109        -0.055090     -0.032955      0.017781
O	      4.03589      8.55056      6.19234         0.038817      0.012087     -0.040905
O	      4.16709      6.35786      8.47210        -0.061487     -0.014678     -0.003190
O	      6.23614      8.55916      8.58793        -0.017340      0.028347     -0.033252
O	      6.13061      6.32856     10.47660        -0.039399     -0.037918     -0.013561
O	      8.23319      8.53623     10.48688         0.044420     -0.009934     -0.028399
