# total energy = -224.97844679 eV
 
CRYSTAL
PRIMVEC
0.023310 6.106591 6.181208 
6.482822 -0.002414 6.206734 
4.320567 4.087254 -0.000233 
PRIMCOORD
36 1
Li	      0.13888      6.15291      6.17139        -0.077345      0.065617     -0.004030
Li	      8.52704      2.06736      6.17535        -0.028069      0.063731      0.011509
Li	      4.40478      6.12445     10.35086        -0.022770      0.001882      0.095741
Li	      4.25826      6.09005      2.10522        -0.036224     -0.005654     -0.065637
Li	      6.39482      6.12829      4.16360        -0.009805     -0.013506     -0.048903
Li	      4.41625      4.07658      4.14434         0.011649     -0.040212     -0.015429
Li	      4.33887      1.97519      6.09956         0.048019     -0.071029     -0.011940
Li	      2.18898      6.12512      4.17443        -0.028878     -0.023652     -0.076253
Li	      6.51470      6.05281      8.25396         0.055414     -0.009776      0.022368
Mn	      2.20911      4.13792      2.08911        -0.080053      0.025859     -0.138726
Mn	      6.50806      4.10073      6.16494         0.014099     -0.253994     -0.094683
Mn	     10.75493      8.20634     10.35962        -0.046537      0.142287     -0.132700
Cr	      6.53041      8.07447     10.34772         0.001547      0.027561      0.051381
Cr	      2.21358      4.02715      6.13204         0.118705     -0.075423     -0.044662
Fe	      2.13049      0.10275      2.05818        -0.139590      0.053753      0.339821
Fe	      4.32195      2.05386      2.12601         0.001965      0.096653      0.075956
Fe	      8.68049      8.00262      8.25127         0.071902      0.044706      0.080990
Cu	      4.28901      6.14096      6.12581         0.084288     -0.020014      0.021819
O	      4.28865      6.30715      4.19509         0.011964     -0.118367     -0.006698
O	      2.30708      2.10725      2.09010        -0.059009      0.018447     -0.004082
O	      4.44390      4.07838      2.10379        -0.013000      0.033400     -0.033762
O	      4.53332      2.00967      4.02748        -0.068127     -0.023157      0.137583
O	      6.51600      4.00675      4.15856        -0.039029      0.104089     -0.207644
O	      6.50359      2.17246      6.10469        -0.035267     -0.031898      0.014219
O	      8.42115      4.08256      6.35476         0.442085      0.017513      0.102846
O	      2.01128      4.08680      4.11610         0.150631      0.001581      0.093839
O	      4.33399      4.01513      6.23538        -0.383032      0.198289     -0.176361
O	      6.48823      6.05247      6.16041        -0.160305      0.207507     -0.007228
O	      6.35943      4.05514      8.16850        -0.015277      0.026953      0.128269
O	      8.66203      6.06242      8.27851        -0.031526     -0.101018     -0.025485
O	      2.16229      6.02931      6.27783         0.147552     -0.047802     -0.220555
O	      4.54729      8.20522      6.27052        -0.008817     -0.114617      0.042316
O	      4.18656      6.11017      8.14141         0.143349     -0.035252      0.020023
O	      6.56187      8.16119      8.22425        -0.042564     -0.058601     -0.028512
O	      6.43809      6.06377     10.34620         0.053685     -0.066411     -0.000469
O	      8.65215      8.15917     10.22514        -0.031630     -0.019445      0.105078
