# total energy = -229.47770756 eV
 
CRYSTAL
PRIMVEC
0.036208 6.228735 6.376366 
6.261643 0.019822 6.392907 
4.189835 4.179216 -0.002432 
PRIMCOORD
36 1
Li	      2.16695      6.17955      8.48058         0.017481     -0.029502     -0.035390
Li	      6.30371      8.32418     10.58664        -0.004995      0.004283     -0.013356
Li	     10.34420      6.27114      8.56105         0.022104     -0.022564      0.017367
Li	      4.21690      4.21536      4.26848         0.055137      0.006042      0.012033
Li	      8.34303      6.29226      6.48986        -0.016816      0.035135      0.067543
Li	      8.42137      6.25834     10.53009         0.028134      0.013294     -0.001233
Li	      4.21090      6.20694      6.43527         0.017955     -0.013598      0.061388
Li	      8.33653      8.21998      8.50686        -0.055503     -0.093232      0.025914
Li	      6.36244      6.31177      8.50139        -0.011739      0.022373      0.022101
Mn	      2.14234      8.25235      6.37832        -0.071171     -0.049916     -0.000991
Mn	      4.26904      8.28924      8.52755         0.087373      0.000972     -0.012528
Mn	      4.19559      6.25565     10.58562        -0.018929     -0.017912     -0.002254
Cr	      6.25308      0.05571      6.38742        -0.005389      0.042333     -0.049313
Cr	      8.39471      4.28018      8.53934        -0.036760      0.021960      0.033910
Fe	      6.24976      6.23442      4.28218         0.049903     -0.021856     -0.082972
Fe	      6.17119      4.21559      6.47025         0.003432     -0.006383      0.054673
Fe	      6.25252      4.12647     10.52738        -0.036794      0.114310     -0.050397
Fe	      2.26745      4.15976      6.44486         0.043782     -0.087835     -0.128311
O	      2.20488      2.15152      2.09863         0.027098      0.017374      0.034702
O	      4.15448      4.07017      2.03056        -0.011836     -0.023070     -0.043297
O	      4.10995      1.98249      4.28152         0.029967     -0.017800      0.037346
O	      6.35215      4.21650      4.41573         0.015940     -0.054693     -0.025455
O	      6.45027      2.08912      6.41809        -0.013985     -0.002053      0.029858
O	      8.36199      4.22824      6.51930         0.034302     -0.040778      0.066641
O	      2.05932      4.10375      4.23821         0.044444      0.072229      0.011754
O	      4.29016      6.33908      4.20538        -0.093057     -0.135058     -0.003314
O	      4.22280      4.15565      6.38511         0.003955      0.009775      0.003847
O	      6.26780      6.28608      6.29513         0.000568      0.002180      0.025183
O	      6.34846      4.21795      8.49511         0.062456     -0.025765      0.000659
O	      8.39036      6.19601      8.55909        -0.009712      0.017525     -0.046737
O	      2.01504      6.12762      6.31191        -0.020550      0.121642     -0.022890
O	      4.12681      8.40379      6.26052         0.009934      0.019215     -0.029820
O	      4.19338      6.39145      8.49473        -0.018635      0.049686     -0.077913
O	      6.23676      8.33374      8.37044        -0.046188      0.021124      0.091499
O	      6.15923      6.21458     10.75074        -0.001904      0.001980      0.049869
O	      8.43357      8.45078     10.70955        -0.080004      0.048583     -0.020118
