# total energy = -221.41137030 eV
 
CRYSTAL
PRIMVEC
0.051299 6.301964 6.444861 
6.031037 0.041251 6.454880 
4.046856 4.234409 0.000076 
PRIMCOORD
36 1
Li	      4.08116     10.46916      6.47364        -0.001026     -0.044530     -0.003066
Li	      8.21988      8.57094     12.84921         0.077385      0.029025     -0.047108
Li	      4.07898      8.39841      8.49655         0.061235     -0.037993     -0.064241
Li	      4.10109      6.30009     10.74388         0.025665     -0.007479      0.005045
Li	      8.09438      4.30881      8.57260         0.002928     -0.015214     -0.132601
Li	      4.04029      4.26267      4.25695        -0.005097     -0.017543      0.034283
Li	      4.09158      8.47115      4.43689        -0.089095      0.009284      0.141953
Li	      4.04753      6.47263      6.48237         0.064511      0.066262      0.019605
Li	      5.98032      6.28054      8.70098        -0.030589      0.014416     -0.013041
Mn	      6.06909      8.39616     10.72596         0.003042      0.005324      0.036598
Mn	      1.98902      2.18321      4.25420         0.056160     -0.119908      0.081917
Mn	      6.04533      4.23273      6.44560         0.019768      0.040824     -0.062837
Mn	      2.10996      6.29013      4.25925        -0.110139      0.203388      0.101731
Cr	      2.06529      6.29538      8.52730         0.189151     -0.137940      0.089566
Cr	      8.07967      6.31200      6.45127        -0.195469      0.069297     -0.040190
Co	      2.00491      4.23328      6.39745        -0.030190      0.078220      0.002596
Cu	      0.04961      2.10441      2.12290         0.017361      0.046680     -0.068334
Ni	      8.10891      8.45858      8.60853        -0.076695      0.030731     -0.053287
O	      4.23050      8.47859      6.48889        -0.208131      0.026414     -0.052067
O	      2.03030      2.01749      2.31965         0.049699      0.064595     -0.020411
O	      4.20945      4.35247      2.20855        -0.060692     -0.007074      0.065351
O	      4.02306      2.09743      4.40600         0.003712      0.030812      0.018949
O	      6.04037      4.10615      4.35183        -0.029123     -0.090749     -0.046700
O	      6.00950      2.10931      6.21688         0.139879     -0.231496      0.066392
O	      7.96664      4.32524      6.44663        -0.072973     -0.056301     -0.019022
O	      2.04948      4.34778      4.32373        -0.003976     -0.002429      0.651539
O	      4.07113      6.40132      4.41231        -0.010094     -0.065285     -0.086512
O	      3.98191      4.11680      6.49820         0.325859     -0.060494     -0.117957
O	      6.07843      6.43186      6.25908         0.012992      0.443553     -0.052987
O	      6.05835      4.16641      8.36346         0.197619      0.029304      0.127057
O	      8.15497      6.37933      8.47291        -0.103151     -0.185043     -0.048780
O	      2.07321      6.19342      6.65578        -0.007714     -0.242925     -0.114823
O	      3.93492      6.26906      8.67989        -0.142978      0.112534      0.011845
O	      6.05874      8.53474      8.72961        -0.086940      0.019834     -0.375850
O	      6.17993      6.46245     10.70881         0.008778      0.029953     -0.087430
O	      8.01698      8.31453     10.72864         0.008326     -0.028047      0.052818
