# total energy = -222.91723270 eV
 
CRYSTAL
PRIMVEC
-0.031086 6.249622 6.229869 
6.126386 -0.022886 6.221707 
4.107771 4.184539 -0.039106 
PRIMCOORD
36 1
Li	      2.07210      8.29162      6.15336        -0.009025     -0.049063     -0.074752
Li	      4.06505      2.11123      2.07642        -0.002174     -0.085926      0.012670
Li	      8.15342      4.16759      4.12419        -0.001805      0.008423      0.021294
Li	      6.15631      2.13699      4.12528         0.017841      0.067791      0.033477
Li	      2.08242      4.12989      2.10906        -0.023136     -0.013192      0.006750
Li	      4.05902      4.13903      4.09764        -0.016622     -0.032893      0.023154
Li	      2.06039      6.24040      4.21672         0.027193     -0.001214      0.073037
Li	      1.99674      4.22546      6.16321         0.011840      0.001977     -0.032066
Li	      3.97761      6.29818      6.17808        -0.027811      0.054453     -0.001659
Mn	      6.14087      4.18011      2.04451         0.011953      0.065261     -0.002739
Mn	      4.06289      2.06563      6.16444        -0.031996      0.036347     -0.052220
Mn	      4.10992      8.33549      4.14935         0.005458      0.063827      0.099407
Mn	      6.04829      6.34624      8.32166         0.045955      0.010833     -0.014559
Cr	      4.08542     10.38480      6.19378        -0.087215      0.021091      0.024428
Cr	      4.07395      4.16562      8.32022        -0.064054      0.106040      0.101737
Co	      2.03926      2.08289      4.13356         0.039120     -0.017648      0.050716
Cu	      4.10144      6.24187      2.05978         0.003443     -0.062115     -0.006264
Cu	      6.17397      4.11725      6.13360         0.088028     -0.006190     -0.001818
O	      1.93008      4.03854      4.14264         0.099551     -0.008861     -0.017277
O	      4.18935      6.38347      4.05864        -0.033879     -0.024310      0.137239
O	      2.02567      1.98322      2.19075        -0.016824     -0.089895      0.030491
O	      4.19327      4.06921      1.96222        -0.050570      0.074533      0.029831
O	      3.98889      2.08899      4.28739        -0.011167     -0.019303     -0.060253
O	      6.12672      4.30486      3.96068        -0.051253      0.011297     -0.037170
O	      6.01243      2.03242      6.26678        -0.020974     -0.240209     -0.153865
O	      8.17608      4.30741      6.22080         0.145085      0.013398     -0.051056
O	      4.18227      4.02423      6.28299        -0.240174     -0.111475     -0.087739
O	      6.23775      6.18597      6.07751         0.069192      0.240234     -0.021415
O	      6.06757      4.26477      8.45279         0.061017      0.018092     -0.003488
O	      8.16575      6.33115      8.13056        -0.050443      0.010309      0.054451
O	      1.95046      6.26663      6.36526         0.062299     -0.037642     -0.090788
O	      4.06034      8.39985      6.05279         0.015420     -0.022886      0.082682
O	      3.98695      6.19049      8.25799        -0.035973     -0.043139      0.011415
O	      6.17230      8.41015      8.30751         0.094355      0.018880      0.004358
O	      6.14652      6.08591     10.44932         0.025007      0.042685     -0.039794
O	      8.28962      8.28670     10.27844        -0.047665      0.000491     -0.048211
