# total energy = -222.67355151 eV
 
CRYSTAL
PRIMVEC
-0.001436 6.100190 6.380324 
6.179054 0.014359 6.365263 
4.140818 4.078245 -0.011650 
PRIMCOORD
36 1
Li	      2.09797      2.05586      0.00540        -0.014752      0.047422     -0.017701
Li	      4.11613      2.05091      2.15830        -0.010460     -0.033031     -0.013589
Li	      4.05916      0.08535      4.24745        -0.025755      0.000330     -0.076789
Li	      6.22344      2.06486      8.43779        -0.022625      0.000648      0.004985
Li	      2.22175      2.02523      4.16681         0.042828     -0.012920     -0.020783
Li	      4.16158      2.04956      6.23547        -0.043420      0.037139     -0.053827
Li	      4.09847      8.11039      4.29022         0.014676     -0.015050     -0.059625
Li	      6.16799      8.13022      6.42492         0.033463     -0.099962      0.034552
Li	      8.22427      8.15735      8.50080         0.006144      0.032187     -0.002549
Mn	      2.08066      4.00190      2.14465         0.071187      0.019818      0.098469
Mn	      6.19022      4.04456      6.35709        -0.077335      0.159883      0.136850
Mn	      2.08208      6.12279      4.26079         0.082788     -0.015135     -0.194774
Mn	      4.10893      6.18128      6.36792         0.302023     -0.210524      0.269673
Cr	      6.17359      2.07105      4.22507        -0.051691     -0.054587     -0.030271
Cr	      6.16125      6.12942      8.51152        -0.213977     -0.014302     -0.096477
Co	      2.04969      0.05476      2.11769         0.016350      0.072059      0.171013
Ni	      4.09415      4.02605      0.00876        -0.033775      0.020973     -0.002699
Ni	      4.14233      4.03291      4.23509         0.018565      0.034966     -0.053194
O	      2.03814      2.10831      2.16217        -0.010979     -0.036750     -0.081889
O	      4.05416      4.10324      2.05500        -0.361632      0.030702     -0.028934
O	      4.20161      2.03246      4.26278         0.037977     -0.143025     -0.020139
O	      6.19863      4.06503      4.18305         0.140265      0.007228     -0.378988
O	      6.17572      2.11216      6.25979         0.014234     -0.144904     -0.028715
O	      8.19109      4.10716      6.55454         0.010057     -0.002346      0.023116
O	      2.10455      4.15251      4.10206        -0.127645      0.016204     -0.002788
O	      3.99221      6.09803      4.40433        -0.073437      0.115004     -0.000360
O	      4.22012      4.18381      6.33934        -0.016721     -0.014445      0.035592
O	      6.07139      6.04898      6.47618         0.006999      0.099491      0.024590
O	      6.31691      4.13113      8.52443        -0.041220     -0.012542      0.089037
O	      8.18673      6.04280      8.66326         0.054093     -0.023321      0.131384
O	      2.12809      6.08042      6.25671        -0.051963     -0.018342      0.189376
O	      4.15887      8.05306      6.33327        -0.063334      0.081800     -0.023842
O	      4.14072      6.10443      8.30432         0.328532      0.009461     -0.101841
O	      6.19824      8.12740      8.57538         0.009415      0.092463     -0.010684
O	      6.28326      6.13628     10.60203         0.001302      0.009152      0.027708
O	      8.19350      8.02021     10.59079         0.049825     -0.035741      0.064114
