# total energy = -224.93356375 eV
 
CRYSTAL
PRIMVEC
0.065355 6.306224 6.173050 
6.236066 0.069497 6.169443 
4.188841 4.233578 0.014780 
PRIMCOORD
36 1
Li	      2.17358      2.08718      0.13059         0.028077     -0.011153      0.001868
Li	      2.11234      6.35478      8.16693         0.002930     -0.011367      0.017603
Li	      4.19734      8.46016      8.17190         0.015127     -0.042141      0.030577
Li	      2.11873      4.15142      2.11107        -0.025005     -0.002286     -0.011315
Li	      2.12839      2.20010      4.06983         0.010157      0.015527      0.034859
Li	      8.30913      6.36504      6.21379        -0.041362      0.013506     -0.015807
Li	      0.16826      4.23256      4.18818         0.042683     -0.015817      0.016781
Li	      6.23599      8.46770      6.22604         0.018341     -0.003991      0.014505
Li	      6.35040      6.43948      8.17923        -0.002022      0.036318     -0.030369
Mn	      4.25491      6.35494     10.24446         0.018670     -0.029091     -0.069117
Mn	      0.05601      2.11047      2.03345         0.021256     -0.034997      0.094331
Mn	      6.31069      4.30520      6.21640        -0.042645      0.072194     -0.039765
Mn	      4.17858      6.38757      6.23283        -0.010106     -0.000151     -0.025034
Cr	      6.33890      8.43926     10.27877        -0.009650      0.000875     -0.016465
Cr	      4.12252      4.20513      4.09498        -0.026756      0.031903      0.019812
Co	      8.38271      6.38069     10.27289         0.024714     -0.030850      0.002881
Co	      8.36382      8.45672      8.24027        -0.041283     -0.000715      0.022089
Cu	      4.26283     10.41124      6.23067         0.090958     -0.070874      0.090443
O	      4.23974      8.25365      6.22497         0.000131      0.075523     -0.012869
O	      1.90161      2.14146      2.10804        -0.067944     -0.013277     -0.037544
O	      4.18551      4.39568      2.07339        -0.008132      0.090382      0.036141
O	      4.25805      2.18078      4.05396         0.008494      0.024727      0.048827
O	      6.23163      4.16229      4.21084         0.014309     -0.024902      0.074399
O	      6.25452      2.35643      6.22794         0.005578      0.058272     -0.044142
O	      8.41819      4.30262      6.03171        -0.185829     -0.007993      0.065839
O	      2.18600      4.38362      4.09505         0.002165      0.022403     -0.032594
O	      4.08757      6.25261      4.01681        -0.029278     -0.006108     -0.020886
O	      4.15313      4.36001      6.18566         0.091899     -0.107864      0.025133
O	      6.17335      6.22001      6.17323         0.055475     -0.023930     -0.010276
O	      6.16474      4.15148      8.19128        -0.038776     -0.037815     -0.059757
O	      8.45467      6.51030      8.30729         0.023715      0.059740      0.006738
O	      2.18480      6.35052      6.03345         0.012490     -0.010000     -0.062178
O	      4.21032      6.19370      8.32750         0.008115     -0.041827      0.053876
O	      6.45852      8.45135      8.33145         0.039135      0.015013      0.002953
O	      6.40423      6.43723     10.37283         0.016200      0.025470     -0.136535
O	      8.35713      8.41066     10.16305        -0.021831     -0.014703     -0.035003
