# total energy = -223.74849484 eV
 
CRYSTAL
PRIMVEC
0.031126 6.303697 6.185255 
6.298476 0.045793 6.170902 
4.225347 4.219514 0.003972 
PRIMCOORD
36 1
Li	     10.47109      4.24689      6.14111        -0.054703     -0.041461     -0.008763
Li	      6.37191     10.40181      8.28059        -0.026259      0.011068      0.031950
Li	      4.41248      8.41018      8.25742        -0.002834      0.011120      0.028661
Li	      4.35317      6.32618     10.24028         0.067233      0.010764      0.012975
Li	      6.32176      8.38731     10.18279        -0.024962      0.000731      0.023866
Li	      8.36928      4.30781      8.14825         0.024486      0.011816      0.004105
Li	      8.43903      6.21593      6.18293         0.020770     -0.058683     -0.068738
Li	      6.26065      4.38157     10.25346         0.008066      0.017885      0.006387
Li	      6.30871      6.39826      8.32461         0.027050     -0.018896      0.038676
Mn	      2.20221      2.08610      4.03924         0.098493      0.061940     -0.061038
Mn	      4.24542      4.21289      4.09124        -0.103221     -0.181260     -0.041268
Mn	      8.31821      6.37841     10.29623        -0.236417     -0.108265      0.144729
Mn	      4.25881      6.36079      6.31745        -0.133093      0.129480     -0.076187
Cr	      8.40255      2.19095      6.18510         0.060159      0.034428      0.048269
Cr	      6.27935      2.18251      8.23740        -0.006386     -0.158025     -0.063966
Co	      6.34575      4.22825      6.16731         0.840062     -0.076081      0.349330
Co	      6.28335      8.44347      6.26644         0.268438     -0.064936     -0.069203
Ni	      8.40542      8.48146      8.28592         0.029977     -0.024019     -0.094072
O	      1.98885      2.13448      2.10273         0.021700      0.040622      0.048205
O	      4.21499      4.33464      2.22433        -0.006230      0.042724     -0.084302
O	      4.14948      2.32507      4.09787        -0.001678      0.097808     -0.027181
O	      6.16241      4.22469      4.20236        -0.286212     -0.005488     -0.513148
O	      6.37335      2.27659      6.25930        -0.041038     -0.165821      0.039666
O	      8.29510      4.16201      6.10963         0.809535      0.068977     -0.105284
O	      2.25783      4.32275      4.20231        -0.169571      0.079644      0.293757
O	      4.21999      6.22036      4.15551        -0.032081      0.065618     -0.024428
O	      4.34166      4.35855      6.11206        -1.205352      0.013604     -0.053516
O	      6.37341      6.22037      5.97588         0.024231      0.238334      0.063997
O	      6.26795      4.17912      8.11681        -0.081053      0.056290      0.505464
O	      8.50258      6.38914      8.37924         0.009195     -0.105994     -0.012964
O	      2.11231      6.38844      6.06563        -0.054165     -0.132955      0.001696
O	      4.17140      8.28776      6.21477         0.201241     -0.074501      0.012094
O	      4.23166      6.29741      8.20566         0.021327      0.120594      0.017410
O	      6.40305      8.41459      8.16965        -0.237442      0.051027     -0.383324
O	      6.47421      6.32307     10.32133         0.177434      0.001287     -0.014431
O	      8.43893      8.29307     10.36943        -0.006704      0.050620      0.030574
