# total energy = -219.06791911 eV
 
CRYSTAL
PRIMVEC
0.002637 6.223434 6.360240 
6.230669 0.022379 6.340200 
4.148615 4.130845 0.020131 
PRIMCOORD
36 1
Li	      2.05940      2.07839      0.15159        -0.022668      0.041876     -0.075910
Li	      4.09303      2.06109      2.10103         0.107629     -0.016478     -0.009217
Li	      8.27087      4.16720      4.38612         0.026504     -0.041332      0.099282
Li	      6.31230      2.16501      8.33158        -0.087321      0.031864     -0.039329
Li	      8.19171      4.08505      8.43259        -0.057030      0.097586     -0.108316
Li	      8.28184      6.15305      6.47728         0.012340     -0.034512      0.056460
Li	      6.27643      4.18840      6.48229         0.043286     -0.024657      0.027316
Li	      6.20746      8.26019      6.39111        -0.018128      0.023530     -0.068931
Li	      6.26731      6.17572      8.33952         0.040136     -0.019967      0.001892
Mn	      6.20713      2.09439      4.27845        -0.008042     -0.098340      0.398423
Mn	      4.16201      4.11139      4.24385         0.021108      0.003391      0.041911
Mn	      8.30459      6.21747     10.50673        -0.040082      0.021902      0.018998
Mn	      4.19221      6.25324      6.37261         0.020989      0.045566     -0.255636
Cr	     10.23878      4.14404      6.42074         0.359807     -0.041082     -0.205947
Cr	      4.16763      4.18231      8.44766         0.108394     -0.125665     -0.010298
Cu	      2.09797      0.06791      2.07664        -0.202223     -0.076849     -0.021666
Ni	      2.13503      2.05877      4.21708         0.062414     -0.051749      0.137629
Ni	      6.24825      4.18675     10.52570        -0.029046      0.051522      0.014909
O	      8.44144      4.13048      6.39529        -0.412522     -0.035685      0.058169
O	      2.09423      1.98834      2.22602         0.012824     -0.313569     -0.182286
O	      4.26030      4.12357      1.91802         0.367422      0.068132      0.418466
O	      4.23147      2.16981      4.25734         0.097419      0.025321     -0.033771
O	      6.12325      4.03819      4.39532         0.014195     -0.091204      0.000436
O	      6.21551      1.96137      6.21774         0.027581      0.103868     -0.123161
O	      2.20840      4.15502      4.14498         0.064894      0.019155     -0.042961
O	      4.21318      6.12399      4.38276        -0.048398     -0.028622      0.021757
O	      4.12758      4.31599      6.44764        -0.011795      0.079242      0.062313
O	      6.09558      6.24497      6.30475        -0.176271      0.047864      0.098142
O	      6.14898      4.18094      8.55760        -0.058022     -0.005068     -0.083001
O	      8.28672      6.32201      8.59767        -0.013173      0.053843     -0.009247
O	      2.12558      6.21316      6.10371         0.134928     -0.016392     -0.012786
O	      4.16127      8.24664      6.21903         0.011562     -0.160655      0.133102
O	      4.11523      6.22492      8.26833        -0.139109      0.085792      0.144279
O	      6.28058      8.38893      8.68527        -0.037025      0.189220     -0.157602
O	      6.20131      6.30786     10.74771        -0.044139      0.222156     -0.245944
O	      8.20911      8.30234     10.50814        -0.128438     -0.030002     -0.047477
