# total energy = -219.04563444 eV
 
CRYSTAL
PRIMVEC
-0.013660 6.330611 6.251557 
6.240779 -0.015293 6.253441 
4.145702 4.207067 0.004439 
PRIMCOORD
36 1
Li	     10.25565      4.29020      6.25759         0.014033      0.061366     -0.028580
Li	      8.26138      2.18678      6.24381        -0.031997     -0.027125     -0.054806
Li	      6.22154     10.48627      8.38825        -0.017117     -0.005061     -0.009211
Li	      8.27926      4.22399      4.27402         0.022566     -0.049213     -0.009895
Li	      6.18303      2.16805      4.12491         0.065760      0.025146     -0.055188
Li	      4.27798      4.07234      4.12795         0.019668      0.000969     -0.029754
Li	      8.37283      6.16645      6.21526        -0.009493     -0.004424      0.027878
Li	      8.25852      8.46219      8.36385         0.021380     -0.033139      0.051573
Li	      6.17777      6.37650      8.37068         0.016933     -0.002751      0.047689
Mn	      6.23018      2.05264      8.26329        -0.120348      0.012537     -0.029044
Mn	      6.17886      4.28496     10.39642        -0.217014      0.112133     -0.167252
Mn	      6.24898      8.41177      6.35235        -0.023042      0.010033     -0.056925
Mn	      4.13227      6.28141      6.34421        -0.031447     -0.026274      0.140831
Cr	      6.27545      6.23250      4.15259        -0.436207      0.005693      0.076531
Cr	      8.29577      6.34928     10.41760        -0.044911      0.110758     -0.052434
Cu	      4.18073      8.41672      8.38447        -0.165688      0.037007     -0.047442
Cu	      6.27374      4.15566      6.22997        -0.100717     -0.077092     -0.004639
Ni	      8.33755      4.19752      8.24974        -0.001893      0.085875      0.072938
O	      6.22564      4.29945      4.23856        -0.005228      0.024007     -0.169638
O	      8.23830      4.19909      6.26468         0.118881     -0.009719     -0.097938
O	      1.95696      2.13771      2.16288         0.249151     -0.109457      0.022287
O	      4.12438      4.38884      2.07866         0.126584     -0.004483      0.015155
O	      4.06255      2.12082      4.06630         0.306545     -0.022419     -0.104749
O	      6.21202      2.14223      6.40089         0.004947     -0.063248     -0.010546
O	      1.94368      4.22662      4.29397         0.066841     -0.020647      0.041936
O	      4.14298      6.46405      4.16393         0.060818     -0.042820      0.047683
O	      4.08640      4.37726      6.20684         0.001465      0.042469     -0.002039
O	      6.11331      6.27443      6.19355         0.017663      0.045975     -0.040092
O	      6.26510      4.05158      8.30091        -0.093960      0.037899      0.098359
O	      8.43511      6.25980      8.42277        -0.000846      0.091436      0.030850
O	      2.22778      6.31370      6.17046         0.053519      0.017621      0.054513
O	      4.23874      8.25992      6.34912         0.037888     -0.104434      0.247377
O	      4.14179      6.26868      8.15689        -0.006546     -0.090662     -0.148912
O	      6.21938      8.41553      8.21725         0.061037     -0.006455      0.078168
O	      6.31739      6.19937     10.42706        -0.009049     -0.010772      0.034202
O	      8.41804      8.32980     10.41807         0.049826     -0.010730      0.031115
