# total energy = -45.52947969 eV
 
CRYSTAL
PRIMVEC
-0.000097 0.000150 -4.165706 
-2.083065 3.991296 -2.083004 
4.165624 -0.000208 0.000097 
PRIMCOORD
8 1
Li	      2.08362      1.99823     -4.16473        -0.007098     -0.000855      0.002483
Li	     -0.00154      1.99795     -2.08014         0.001907     -0.000043     -0.004071
Mn	     -0.00121      0.00259     -4.16405         0.001078      0.000391      0.000226
Ni	      2.08144      0.00254     -2.08119         0.001424     -0.000025      0.000648
O	      2.08162      0.00251     -4.16403         0.000822     -0.000528     -0.000054
O	     -0.00124      1.89422     -4.16442         0.003211     -0.135447      0.004175
O	      4.16420      0.00229     -2.08111         0.002545     -0.000123     -0.000147
O	      2.08216      2.10189     -2.08081        -0.003888      0.136630     -0.003260
