# total energy = -92.56038293 eV
 
CRYSTAL
PRIMVEC
2.045633 4.171242 2.035153 
4.146274 -2.096481 -2.068184 
0.012033 4.180202 -4.099927 
PRIMCOORD
16 1
Li	      2.05984      2.09161     -0.03493         0.005688      0.002902      0.000545
Li	      4.14086      4.05911     -0.07651        -0.008061     -0.020147      0.003604
Li	      4.06796      2.14352     -1.99384        -0.012676     -0.000767     -0.006424
Li	      4.10231      6.23885     -2.05810        -0.006988      0.007199      0.001314
Mn	      2.02942      4.15927      1.98940        -0.014921      0.024760      0.000506
Mn	      2.12038      4.15187     -2.04624         0.041654     -0.044977     -0.008557
Ni	      4.14808      0.00860     -4.08282        -0.037823      0.029211      0.034521
Ni	      4.10741      4.20444     -4.14482        -0.057555     -0.033901     -0.032793
O	      4.00868      4.19218     -2.09465        -0.107608      0.000451      0.110939
O	      4.26567      2.08475     -4.25377         0.043772      0.018759     -0.031481
O	      4.30904      2.02049     -0.03817         0.084560      0.133464     -0.001547
O	      4.09601     -0.21119     -2.07812         0.004507     -0.077348      0.018627
O	      2.08331      4.22303     -0.00780        -0.002625     -0.125712     -0.003406
O	      2.06147      2.29576     -2.02408         0.098035      0.087419     -0.007274
O	      2.02867      6.28182     -2.03101         0.101724      0.001153     -0.109659
O	      2.01308      4.18826     -3.97107        -0.131682     -0.002465      0.031084
