# total energy = -99.75404514 eV
 
CRYSTAL
PRIMVEC
0.000005 2.307902 2.307655 
3.762552 0.000160 -0.000174 
-0.000266 9.446955 -9.446666 
PRIMCOORD
16 1
Li	      0.00061      2.65490      1.82605         0.000549      0.012617     -0.003154
Li	      1.88208      2.52372     -0.30167         0.000062      0.014554     -0.031446
Li	      0.00080      4.37888      0.19515         0.000071     -0.044355      0.020031
Li	      0.00064      6.52228     -2.02000        -0.000302      0.012230      0.003828
Ti	      1.88179      6.87706     -4.75542        -0.000364     -0.355857      0.088843
Ti	      1.88139      9.53302     -7.40036        -0.000192      0.165152     -0.358351
Ni	      1.88192      4.31158     -2.09945        -0.000180      0.062024     -0.064039
Ni	      0.00024      7.19004     -7.07023         0.000849     -0.046442     -0.033781
O	      0.00044      7.40699     -4.89901        -0.000981     -0.143013      0.067873
O	      1.88155      7.51997     -6.72363        -0.000437      0.048722      0.060758
O	      0.00059      4.80976     -2.61303        -0.000221      0.065564     -0.060576
O	      1.88184      7.41300     -2.87476        -0.000983      0.389916     -0.067017
O	      0.00085      2.08837      0.09016         0.000179      0.003533      0.007588
O	      1.88203      4.67333     -0.15374         0.001630     -0.137416      0.134946
O	      0.00018      9.33089     -6.83980         0.000681      0.077932     -0.147711
O	      1.88156     11.36440     -6.85012        -0.000359     -0.125161      0.382207
