# total energy = -218.36101363 eV
 
CRYSTAL
PRIMVEC
0.071202 6.231004 6.005817 
6.603997 0.031478 6.044755 
4.414036 4.189937 0.010638 
PRIMCOORD
36 1
Li	      6.45734      0.26553      6.03089         0.008753     -0.019733     -0.046321
Li	      8.53534      2.14318      6.04374        -0.016846     -0.033238     -0.051710
Li	      6.51277      2.17537      4.12468         0.021215     -0.101797      0.077566
Li	      6.51132      2.13240      7.91493        -0.037630     -0.012143     -0.084628
Li	      4.72153      2.08075      6.04340        -0.011108      0.112866      0.000857
Li	      6.62014      4.05015      6.04776        -0.040882     -0.006021      0.015520
Li	      6.73341      8.30502      6.05398         0.021845      0.026740      0.011566
Li	      8.77304      8.24561      7.95789        -0.060410     -0.085825      0.017541
Li	      6.72496      6.25476      7.95689         0.029223      0.023024      0.091583
Mn	      2.26878      6.24536      7.96947        -0.068290     -0.073558     -0.123017
Mn	      8.77261      4.24412      8.01374         0.042125      0.103346     -0.156214
Mn	      6.63635      4.21968     10.05459        -0.045955     -0.126538     -0.074784
Mn	      4.54091      6.22883      6.02591        -0.004269     -0.210089     -0.026873
Cr	      4.50596      8.37608      7.99818         0.129617      0.150400      0.013344
Cr	      8.89574     10.38938     10.09179         0.073336      0.010634      0.043861
Cu	      6.69758      6.25138      4.11347        -0.007973      0.020676     -0.025992
Cu	      4.45717      4.15227      4.08237        -0.031805      0.001068      0.028641
Cu	      8.77855      6.35962     10.08687         0.006642      0.128872     -0.025353
O	      4.44889      4.31025      5.98066         0.012029      0.127956      0.078306
O	      8.79757      6.14778      8.11777        -0.042418     -0.071295     -0.028675
O	      2.37571      2.13272      2.10828         0.037602      0.052345     -0.091645
O	      4.25005      4.14028      2.13017        -0.118710     -0.001434     -0.093826
O	      4.39468      2.04335      3.99346        -0.029689     -0.238089      0.058542
O	      6.81003      4.13530      3.88760         0.231980      0.135840      0.161152
O	      6.63718      2.11389      6.03129         0.024791     -0.036447     -0.017196
O	      8.83444      4.19896      6.12427        -0.032915      0.003199      0.080633
O	      2.02740      4.30624      3.93072        -0.035059     -0.129290      0.053248
O	      4.56206      6.31864      4.11037         0.046942      0.171405     -0.014774
O	      6.43828      6.23878      6.00527        -0.084325     -0.008328      0.021335
O	      6.84890      4.14571      8.15794         0.068646     -0.005512      0.010226
O	      2.51228      6.29375      6.02399         0.033001     -0.021752      0.075860
O	      4.53608      8.18755      5.97221         0.019846      0.018224      0.060048
O	      4.49848      6.35076      7.98661        -0.001752     -0.009593     -0.031517
O	      6.50160      8.51154      8.00630        -0.047944     -0.016048      0.015995
O	      6.47403      6.09047     10.08896        -0.095541      0.060134     -0.080387
O	      9.12004      8.35754      9.96431         0.005924      0.060003      0.057090
