# total energy = -225.50108145 eV
 
CRYSTAL
PRIMVEC
-0.024531 6.221110 6.389074 
6.197829 -0.017844 6.382233 
4.133978 4.145084 -0.013997 
PRIMCOORD
36 1
Li	      4.14584     10.27033      6.39088        -0.025807      0.010337      0.050817
Li	      2.18985      8.20300      6.39412         0.072655     -0.036990      0.005179
Li	      4.07226      8.31536      8.42887         0.007682      0.021221     -0.102135
Li	      6.18634      8.25568     10.60532        -0.000282      0.031642     -0.028927
Li	      2.12680      4.07461      2.25609         0.011048     -0.014118      0.127455
Li	      2.05301      2.12512      4.18555         0.006296      0.015494      0.008004
Li	      4.06186      4.14621      4.17461         0.013432     -0.032822     -0.020683
Li	      4.14319      8.28628      4.30080        -0.025727     -0.002774      0.005872
Li	      4.01598      6.35260      6.34049        -0.022791      0.048135      0.014184
Mn	      4.13736      6.17736      2.19040         0.043141      0.028311     -0.197684
Mn	      4.14998      2.02460      6.33757        -0.066980     -0.000906      0.125224
Mn	      6.18139      4.13820      6.30443        -0.006367      0.037758      0.055198
Mn	      8.24398      8.27532      8.55627        -0.010235     -0.053383     -0.151929
Cr	      2.05035      0.03772      2.15602         0.049287     -0.048804      0.042764
Cr	      4.15458      6.21805     10.64387         0.030341      0.057128     -0.135744
Fe	      1.88281      4.23503      6.28917         0.284817     -0.095815      0.379568
Co	      6.18379      6.19640      8.55764         0.086836     -0.034023     -0.083061
Cu	      2.03109      6.21587      4.30794        -0.165353      0.165750     -0.002520
O	      2.06620      4.21679      4.38306         0.025981     -0.105849     -0.369030
O	      1.90045      2.04226      2.14246        -0.098648      0.036095      0.062426
O	      4.19423      4.27387      2.12059        -0.016420      0.000111      0.030398
O	      4.15294      2.00406      4.45062         0.016931      0.072367      0.023941
O	      6.29896      4.13923      4.19412        -0.051996      0.025561     -0.035636
O	      6.08914      2.18186      6.47767         0.013623     -0.039628      0.033641
O	      8.21858      4.23620      6.25933        -0.034489     -0.047248     -0.031442
O	      4.01109      6.21549      4.05919         0.032919     -0.027035      0.003971
O	      4.13173      3.99889      6.49213         0.062047     -0.051337      0.040384
O	      6.30077      6.12000      6.45732        -0.036869     -0.010353      0.216845
O	      6.07857      4.02959      8.50040        -0.036678      0.044206     -0.003681
O	      8.33883      6.09565      8.29357        -0.158815     -0.035664     -0.175555
O	      2.06464      6.17536      6.54040         0.008798      0.152563      0.139985
O	      4.16741      8.27464      6.41011        -0.277409      0.000043      0.003900
O	      4.07954      6.28370      8.62931         0.136384      0.008361      0.079454
O	      6.29311      8.33021      8.41589         0.054550     -0.095011      0.046236
O	      6.19213      6.22865     10.52725         0.063220     -0.028827     -0.248320
O	      8.23265      8.29931     10.49656         0.014876      0.005506      0.090901
