# total energy = -225.61691312 eV
 
CRYSTAL
PRIMVEC
0.005339 6.310076 6.316151 
6.204788 0.036115 6.285599 
4.159265 4.209060 0.001126 
PRIMCOORD
36 1
Li	      2.18362      8.24431      6.25477        -0.026598      0.029997     -0.056482
Li	      2.14125      6.26373      8.28562        -0.005687     -0.024359     -0.040293
Li	      1.99728      2.25602      4.17490         0.053589      0.062113     -0.000698
Li	      4.00944      4.30954      4.23092        -0.014161      0.016286      0.001479
Li	      4.22822      8.32106      4.26514         0.068962      0.017271     -0.021822
Li	      2.18721      6.22167      4.30930        -0.032404     -0.129191     -0.069221
Li	      2.07591      4.33148      6.21068         0.013176     -0.043936     -0.121127
Li	      3.97276      6.37080      6.23159        -0.013197      0.006891     -0.024028
Li	      8.23333      8.46354      8.44079         0.019599     -0.046527      0.015277
Mn	      4.13345      8.41390      8.38201        -0.113720      0.104397     -0.002333
Mn	      8.26925     10.46985     10.48076        -0.004578     -0.037253      0.060417
Mn	      4.19437      6.32038      2.25284         0.018556     -0.032762      0.018559
Mn	      4.11422      2.17066      6.27706         0.120437     -0.027172     -0.001720
Cr	      0.08449      6.26639      6.31217        -0.111835      0.087937     -0.023917
Cr	      6.24531      6.33706      8.44303         0.073126     -0.092580      0.055809
Fe	      6.14684      4.27534      6.25534         0.134667     -0.039498      0.087461
Co	      2.09776      4.21313      2.16388         0.022247     -0.043485      0.263575
Ni	      6.26013      8.44006     10.48343        -0.004723     -0.015702      0.108344
O	      2.12653      2.25732      2.07471         0.070707     -0.083420     -0.025658
O	      4.07471      4.14009      2.04391         0.098461     -0.139541     -0.011354
O	      4.16563      1.97560      4.07674        -0.134423     -0.016859     -0.017834
O	      6.31828      4.17379      4.30990        -0.042613      0.089119     -0.091297
O	      6.12631      2.12495      6.43022        -0.026611      0.014383      0.014322
O	      8.31196      4.39286      6.39934        -0.009910      0.049689      0.011266
O	      2.07922      4.19839      4.04307        -0.027650      0.032878     -0.047068
O	      4.18431      6.30680      4.06416         0.014258      0.012929      0.096323
O	      4.21443      4.08692      6.30291        -0.164411      0.084189      0.064573
O	      6.33406      6.26823      6.42049        -0.118153      0.129641      0.002263
O	      6.34969      4.27149      8.31933        -0.107325      0.121371      0.039391
O	      8.28730      6.22799      8.45547         0.002336      0.061984     -0.027164
O	      1.98317      6.31878      6.31879         0.127947     -0.031221     -0.047797
O	      4.14941      8.52974      6.46169         0.040872     -0.157155     -0.014634
O	      4.22504      6.46948      8.31612        -0.020310      0.050345      0.031358
O	      6.10355      8.33706      8.44505        -0.044849      0.035252     -0.128011
O	      6.09880      6.35601     10.52351        -0.002125     -0.061919     -0.081524
O	      8.26384      8.58746     10.48323         0.146345      0.015909     -0.016434
