# total energy = -227.89172619 eV
 
CRYSTAL
PRIMVEC
0.030592 6.209656 6.216816 
6.329272 0.023131 6.224341 
4.233828 4.159120 0.001118 
PRIMCOORD
36 1
Li	     10.38754      4.21178      6.25959        -0.002430     -0.039000      0.001990
Li	      6.33077      4.16924      2.08968        -0.034938      0.001737     -0.007237
Li	      4.24627      2.11317      2.08948         0.019014      0.050227      0.012653
Li	      8.52128     10.36868     10.40528         0.019795     -0.003765     -0.024335
Li	      8.47946      4.18749      8.15135        -0.003650     -0.038340     -0.032419
Li	      8.50179      6.08585      6.28381        -0.042400     -0.064756      0.009843
Li	      6.45531      4.15125      6.21697         0.015033      0.017634     -0.040860
Li	      4.26417      4.17487      8.27107         0.012789     -0.002313     -0.004757
Li	      6.31467      6.20480      8.27019        -0.029643     -0.010359      0.023141
Mn	      6.32115      2.06540      8.20624        -0.013830      0.006555      0.069494
Mn	      2.25103      2.00683      4.05620         0.013879      0.046802      0.025919
Mn	      6.32327      4.22854     10.32361        -0.013146     -0.048562      0.006933
Mn	      4.25031      6.21758      6.33415         0.014693      0.015725     -0.100580
Cr	      6.30573      2.12407      4.11478         0.066884     -0.010878     -0.090680
Cr	      8.45983      6.23940     10.33482         0.055692      0.067273     -0.015964
Fe	      6.39490      8.28632      6.40956        -0.041858      0.052320     -0.154725
Co	      8.40509      2.15544      6.23700        -0.097140     -0.024078      0.029179
Co	      4.24772      4.16133      4.14354         0.036957      0.006472     -0.015659
O	      1.96952      2.08159      1.95919         0.007522      0.016172     -0.156192
O	      4.22255      4.25673      2.22406        -0.023426     -0.051958      0.038636
O	      4.31297      2.22635      4.15816         0.022729      0.069558      0.070236
O	      6.17101      4.11277      4.14387        -0.061796     -0.096585      0.030995
O	      6.45816      2.07213      6.13052         0.130696      0.026414     -0.037021
O	      8.43894      4.03269      6.17277        -0.006012     -0.060403      0.005419
O	      2.19392      4.21191      4.26520         0.056429     -0.022733      0.029966
O	      4.19134      6.19970      4.26331        -0.047639      0.016523      0.080375
O	      4.16327      4.28772      6.13784         0.098446      0.009157      0.024162
O	      6.19204      6.30216      6.21699        -0.067422     -0.066281      0.028756
O	      6.33502      4.06894      8.46566         0.042329      0.034498     -0.045016
O	      8.61716      6.25337      8.36201         0.015935     -0.019373     -0.092962
O	      2.26980      6.25173      6.16493         0.010077      0.052418      0.028793
O	      4.22609      8.21720      6.11488        -0.086866      0.043460      0.062831
O	      4.23845      6.24203      8.14363        -0.042134      0.023364      0.008637
O	      6.36901      8.31400      8.27593        -0.022303      0.009630      0.239042
O	      6.47184      6.24293     10.33866         0.023320     -0.017713      0.001449
O	      8.42861      8.25797     10.46594        -0.025588      0.011159     -0.010043
