# total energy = -222.40752300 eV
 
CRYSTAL
PRIMVEC
-0.005013 6.233148 6.212220 
6.339026 0.001391 6.205690 
4.226518 4.151541 0.000504 
PRIMCOORD
36 1
Li	      4.27168      8.32949      8.27772         0.075187     -0.042185     -0.009687
Li	      6.35377      8.26380     10.24171        -0.000776     -0.004197     -0.042971
Li	      4.21030      6.25505      2.18559        -0.009081      0.009924      0.037296
Li	      2.06986      2.16733      4.12706         0.007162     -0.024443      0.047321
Li	      0.04705      4.12931      4.06795        -0.028717      0.013857     -0.041308
Li	      2.15536      6.16516      4.04292         0.026779      0.022973      0.017122
Li	      6.32848      8.26600      6.21756         0.053643     -0.042751      0.025094
Li	      8.35844      8.26811      8.36885        -0.091035      0.012852     -0.001972
Li	      6.40612      6.30970      8.33256        -0.016685      0.070284      0.014645
Mn	      8.43587      8.30411     12.40827         0.007429     -0.132677     -0.090664
Mn	      4.26325      6.25191     10.25597         0.027371     -0.008145     -0.067154
Mn	      8.40621      6.26019      6.25047        -0.045361      0.092791      0.051344
Mn	      4.27156      6.25876      6.18043        -0.004208     -0.004836      0.091661
Cr	      0.00210      6.21098      6.19674         0.076447     -0.011311     -0.049372
Cr	      6.31795     10.32412      8.32032         0.072362      0.019961     -0.055851
Fe	      6.29839      4.15485      6.28483         0.031903     -0.020642     -0.135364
Cu	      2.07190      4.15038      2.18497         0.012812     -0.000484     -0.019668
Ni	      4.17497      4.16184      4.09923         0.085153     -0.060968     -0.002647
O	      2.16447      4.15809      4.08543        -0.091246     -0.017319      0.248780
O	      2.10777      2.04138      1.91005        -0.009627      0.030440     -0.025560
O	      4.28206      4.15843      2.02664        -0.078602     -0.022922     -0.132228
O	      4.22687      2.01398      4.30629         0.005016     -0.043071      0.004425
O	      6.46838      4.16313      4.11764         0.004355      0.017491      0.107619
O	      6.36418      2.05817      6.19523         0.089690     -0.032607      0.004676
O	      8.49065      4.10476      6.27854        -0.009442     -0.162345     -0.151412
O	      4.22965      6.18892      4.30170         0.033847      0.110633     -0.075367
O	      4.32981      4.16395      6.17276        -0.057647      0.079599      0.102980
O	      6.38194      6.14303      6.22499         0.073504      0.090693     -0.011194
O	      6.44617      4.11829      8.17874        -0.048449      0.013134      0.196920
O	      8.45183      6.17944      8.15010         0.040641      0.023841     -0.007587
O	      2.00737      6.32377      6.25228        -0.035344      0.159855     -0.040657
O	      4.06597      8.32686      6.20638        -0.129733     -0.007018     -0.026237
O	      4.10892      6.24190      8.16207         0.031834     -0.005560     -0.009073
O	      6.32314      8.42469      8.23325        -0.045916     -0.081156     -0.037564
O	      6.18215      6.24208     10.42825        -0.023144     -0.028044      0.022057
O	      8.43511      8.43996     10.48347        -0.030122     -0.015649      0.061597
