# total energy = -222.18060649 eV
 
CRYSTAL
PRIMVEC
0.007645 6.275808 6.167564 
6.434989 0.003743 6.171772 
4.276398 4.173230 0.016630 
PRIMCOORD
36 1
Li	      6.36013      0.15905      6.12367        -0.049335     -0.029250      0.024228
Li	      8.42504      2.12039      6.12479        -0.056539      0.006470     -0.012204
Li	      4.27330      2.10219      2.05002        -0.049624      0.013044     -0.000888
Li	      8.59168      4.21683      4.29556        -0.038321      0.036209      0.036554
Li	      6.44057      2.07112      4.28185        -0.029918      0.071514     -0.123833
Li	      6.47684      2.06546      8.01427         0.086132     -0.007037      0.055608
Li	      4.50665      2.00449      6.12296         0.074551     -0.013580     -0.007297
Li	      6.49283      4.00295      6.15812         0.041360     -0.041153     -0.013058
Li	      6.38179      8.39583      6.22531        -0.032721      0.019556     -0.018653
Mn	      2.10000      6.28592      8.16492        -0.113523      0.037783      0.201228
Mn	      8.64008      4.15774      8.13020         0.014693     -0.030647      0.113471
Mn	      6.49343      6.24614      4.22532        -0.060445     -0.059010     -0.151520
Mn	     10.65605      8.39955     10.35214        -0.024066     -0.023314     -0.085247
Cr	      4.29859      4.15550      4.15664         0.061908      0.036547     -0.048456
Cr	      6.40147      6.30764      8.21473        -0.026477     -0.010193     -0.014650
Fe	      4.26031      4.14277      8.14405         0.116010     -0.041176      0.056446
Cu	      8.50721      6.30090     10.36616        -0.132998      0.053503      0.064543
Cu	      4.29726      6.30245      6.18792        -0.046339      0.141419     -0.011276
O	      6.44661      2.09011      6.15161         0.018585     -0.057195     -0.012964
O	      2.25600      6.28796      6.26390         0.019036      0.005202     -0.157284
O	      2.16471      2.10492      2.21119         0.034267     -0.009356      0.037293
O	      4.25957      4.16864      2.14622        -0.033864      0.017460     -0.010401
O	      4.10835      2.19173      4.17974         0.059210     -0.022463      0.001426
O	      6.30168      4.15294      3.97448        -0.046988      0.088204      0.075742
O	      8.56979      4.14905      6.32225         0.000342      0.009680     -0.134841
O	      2.19833      4.29419      4.00448         0.060073     -0.242193      0.004467
O	      4.48295      6.26755      4.18540         0.082030      0.012018     -0.114809
O	      4.31606      4.26649      6.17197        -0.012644     -0.060859     -0.066988
O	      6.33029      6.28545      6.18896         0.037046      0.019143     -0.028026
O	      6.42238      4.26553      8.35182        -0.054292      0.006972     -0.028156
O	      8.42662      6.28208      8.23792        -0.064644     -0.059710     -0.037112
O	      4.31393      8.31015      6.02600         0.014651      0.080690      0.095939
O	      4.33612      6.20044      8.18410         0.097487      0.053520      0.164077
O	      6.53792      8.34105      8.24336        -0.053000     -0.045278      0.000692
O	      6.34011      6.19498     10.19958         0.086471     -0.108464      0.068383
O	      8.67938      8.23287     10.19766         0.021887      0.151944      0.077567
