# total energy = -222.98979912 eV
 
CRYSTAL
PRIMVEC
0.012084 6.301521 6.230422 
6.307036 -0.007930 6.250614 
4.201093 4.210699 -0.001711 
PRIMCOORD
36 1
Li	      6.35659     10.39408      8.37980         0.048906     -0.033033      0.016315
Li	      4.32459      8.37634      8.37578         0.047199     -0.013048      0.044100
Li	      6.28757      8.42918     10.26291        -0.038512     -0.004358     -0.055196
Li	      6.28372      6.28015      4.18857        -0.034900     -0.008215     -0.003410
Li	      4.23794      4.22747      4.16337        -0.022707      0.039171     -0.036127
Li	      6.27815      4.22608      6.22418         0.018004     -0.026034      0.022309
Li	      0.02817      4.17336      4.13567         0.018102     -0.028873     -0.027493
Li	      8.34586      8.45663      8.32676        -0.017100      0.010746     -0.021180
Li	      6.29339      6.35658      8.34653         0.012174      0.020730      0.002691
Mn	      6.31646      6.27429     12.45775        -0.145930      0.210906      0.109755
Mn	      8.43368      8.39183     12.44030        -0.152524      0.109712      0.015046
Mn	      2.06394      4.19677      2.17986         0.067075      0.137334     -0.023842
Mn	      6.32002      8.39973      6.28575         0.075373     -0.097356      0.032698
Cr	      4.10671      6.30058     10.27018        -0.136694      0.082460     -0.455327
Cr	      4.21017      6.34265      2.13390        -0.279879     -0.166463      0.170738
Fe	      4.16539      2.16877      6.13061         0.200706     -0.256797      0.206175
Ni	      8.40624      6.30447     10.38712         0.012976      0.012939     -0.083300
Ni	      4.28551      6.27174      6.22295        -0.083999     -0.050377      0.055310
O	      2.03285      2.21312      1.93459        -0.005971     -0.008170     -0.206096
O	      4.06859      4.27716      1.96297        -0.071461      0.019504     -0.102689
O	      4.20018      2.00134      4.21592        -0.017887     -0.255484     -0.208941
O	      6.46353      4.20046      4.16608         0.499161      0.002290     -0.054274
O	      6.26965      2.04932      6.32727         0.112636     -0.006798      0.088896
O	      8.41442      4.23771      6.12238        -0.131855     -0.148266     -0.261059
O	      2.10722      4.25797      4.27723        -0.020669     -0.132124      0.177951
O	      4.16609      6.28160      4.15049         0.133093      0.057025     -0.314571
O	      4.11180      4.13190      6.24851        -0.198530      0.321916      0.002966
O	      6.35328      6.44450      6.25786        -0.111962      0.235902     -0.032297
O	      6.46253      4.10996      8.32688         0.089023      0.010536      0.035128
O	      8.46652      6.19318      8.28364         0.085921     -0.066307     -0.003695
O	      2.13757      6.25954      6.22935         0.223985     -0.056442      0.129455
O	      4.26474      8.42883      6.26468         0.133237     -0.132301      0.019668
O	      4.27466      6.27250      8.39796        -0.083467      0.010976      0.802489
O	      6.32139      8.42491      8.16822         0.005821      0.002253     -0.265829
O	      6.24716      6.30125     10.55387        -0.230345     -0.013754      0.002387
O	      8.39437      8.43116     10.51836         0.001002      0.219803      0.221247
