# total energy = -229.71248119 eV
 
CRYSTAL
PRIMVEC
0.032533 6.179475 6.537156 
6.199273 0.027502 6.541878 
4.129345 4.120045 0.021756 
PRIMCOORD
36 1
Li	      6.21282      6.19221     12.94746         0.004083      0.023512     -0.057488
Li	      8.30561      8.30830     12.96170        -0.002058      0.043225      0.006290
Li	      6.40058      8.19884     10.98216        -0.046460     -0.000741      0.041037
Li	      8.25434      4.14924      8.72713        -0.008460      0.055032      0.088792
Li	      6.24901      4.10874      6.61660        -0.037528      0.009889      0.023792
Li	     10.22719      8.30512     10.92252         0.098855      0.008202     -0.020965
Li	      8.26380      6.37666     10.96808         0.013452     -0.017620      0.037727
Li	      4.11821      6.20560      6.51722         0.007009     -0.058840     -0.010199
Li	      8.31904      8.24308      9.02051        -0.024067      0.051724      0.020931
Mn	      4.15588      8.23731      8.68288        -0.323795      0.343935     -0.494173
Mn	      2.03779      2.08282      4.32296        -0.289492      0.019628      0.069334
Mn	      8.29578      6.15242      6.58972        -0.064762      0.002433     -0.013777
Mn	      2.08079      4.14626      6.54868         0.110331      0.005243     -0.093195
Cr	      2.13038      6.15407      8.67080        -0.009878     -0.145804     -0.017776
Cr	      4.12733      4.12126      4.33169         0.048759      0.199619      0.000640
Fe	      6.16500      2.21118      8.63398        -0.004512     -0.167074      0.154126
Fe	      6.27122      6.11841      8.87479         0.052859     -0.070130     -0.004238
Co	      8.32039     10.28759     10.93291         0.047697     -0.298877     -0.108393
O	      2.07070      1.99007      2.08896        -0.476548     -0.028127     -0.049235
O	      4.20739      4.10565      2.30539         0.105167      1.064586      0.130298
O	      4.01661      2.05934      4.16790         0.093099      0.088232      0.109157
O	      6.20585      4.23594      4.23983        -0.099123     -0.035554     -0.033051
O	      6.07551      2.06838      6.67413         0.055231      0.046135     -0.133530
O	      8.25250      4.25249      6.30878        -0.022906      0.006630      0.010987
O	      2.14369      3.99962      4.33546        -0.039801     -0.014937     -0.010348
O	      4.21824      6.12210      4.26225         0.040962     -0.029380      0.089675
O	      4.08024      4.03558      6.32878         0.015079     -0.023343     -0.044577
O	      6.29939      6.26653      6.65150         0.004173     -0.035229      0.022074
O	      6.22801      4.15231      8.69578         0.029520      0.016925      0.003927
O	      8.27785      6.21151      8.78889         0.001591     -0.013548     -0.036866
O	      2.13284      6.04965      6.67461         0.005862      0.036270      0.033149
O	      4.27290      8.21685      6.78388        -0.038501      0.003538     -0.155108
O	      4.16647      6.22898      8.87291        -0.083628     -1.223763      0.218642
O	      6.14765      8.23809      8.80549         0.769353      0.097226      0.014987
O	      6.10619      6.20518     10.82531         0.072058      0.021436      0.044999
O	      8.29427      8.40990     10.97877        -0.003621      0.019547      0.162355
