# total energy = -227.54004491 eV
 
CRYSTAL
PRIMVEC
0.015636 6.090504 6.398140 
6.300660 -0.008509 6.422503 
4.203931 4.080164 -0.008679 
PRIMCOORD
36 1
Li	      8.27872      2.11436      6.34662         0.040691     -0.024293     -0.002343
Li	      4.12998      2.05324      2.24545        -0.044845     -0.016156     -0.008963
Li	      6.32040      2.06118      4.37731         0.012611      0.020131      0.027078
Li	      8.38589      4.03509      8.53895         0.000427     -0.048219     -0.070134
Li	      2.17398      1.99858      4.18821        -0.010481      0.005971     -0.011844
Li	      4.26850      1.97192      6.35564        -0.004792      0.045559      0.007199
Li	      6.39199      3.98634      6.42812         0.014121      0.022706      0.002686
Li	      6.26755      4.07218     10.61649         0.035788     -0.022322     -0.006267
Li	      8.46488      8.13646      8.64264         0.017710      0.043968      0.006588
Mn	     10.45947      4.06807      6.41327         0.035230     -0.041579      0.020640
Mn	      6.28865      4.06642      2.19446         0.052763      0.047010      0.028103
Mn	      8.40783      4.09295      4.29881        -0.011974      0.013770     -0.096435
Mn	      2.13438      4.02928      6.38877         0.063680     -0.026205     -0.010383
Cr	      4.18138      3.99110      4.27568         0.010996     -0.089310      0.064197
Cr	      6.39370      6.07900      8.55417        -0.127217     -0.031201     -0.042821
Fe	      6.24773      2.11438      8.51174         0.104034     -0.076443      0.090433
Fe	      4.24324      6.14368      6.39042        -0.128635     -0.042586      0.035761
Cu	      8.38167      6.18650     10.61484         0.013106      0.076231     -0.044207
O	      8.41867      8.30675     10.67967         0.007195     -0.162034     -0.026724
O	      1.97575      1.88280      2.15091         0.012641      0.059050      0.015239
O	      4.14818      4.10020      2.25064        -0.115342     -0.007530     -0.027154
O	      4.20565      1.98172      4.26860        -0.005067      0.126064      0.005949
O	      6.20953      4.05946      4.18680        -0.012090     -0.033290      0.050048
O	      6.28865      1.90576      6.53085        -0.003672     -0.026061     -0.111194
O	      8.55261      4.05196      6.28965         0.022945      0.016204      0.012333
O	      2.17681      3.98650      4.49430        -0.021383      0.077464      0.106712
O	      4.07319      6.04709      4.35374         0.129864      0.025109     -0.046321
O	      4.08515      4.13285      6.31268        -0.101601     -0.087334     -0.026040
O	      6.24527      6.18718      6.50545         0.067342      0.063970      0.020883
O	      6.36287      4.05401      8.50631         0.029794      0.133575     -0.011236
O	      8.42124      6.10759      8.56741        -0.104843      0.019796     -0.121234
O	      2.07815      6.00504      6.48685        -0.037008     -0.041626      0.092353
O	      4.37813      8.15570      6.36261         0.027181      0.100802      0.033892
O	      4.30029      6.11747      8.47418         0.141623     -0.017869      0.079451
O	      6.35809      8.17027      8.33050         0.019476     -0.095088     -0.011425
O	      6.41902      6.12866     10.56007        -0.130267     -0.008233     -0.024823
