# total energy = -227.50142237 eV
 
CRYSTAL
PRIMVEC
0.032396 6.233006 6.363268 
6.251123 0.029061 6.366423 
4.163614 4.153660 0.023273 
PRIMCOORD
36 1
Li	      6.38586      6.31339     12.61489        -0.008226     -0.005785     -0.086446
Li	      6.25052      2.08624      4.31061         0.017124     -0.006793      0.005313
Li	      6.20381      2.17141      8.47875        -0.036423      0.018375      0.005995
Li	      6.21683      6.24152      4.41328        -0.017939      0.008656      0.128507
Li	      6.20697      4.16093      6.34773        -0.016433      0.001715     -0.015594
Li	      2.11428      6.22074      4.35531        -0.014603     -0.002636      0.008928
Li	      2.12703      4.21753      6.35249        -0.015217      0.012465      0.021010
Li	      4.14750      6.21627      6.30264         0.017295     -0.019724     -0.020705
Li	      4.19860      4.15233      8.46979        -0.057808     -0.052956      0.004865
Mn	      4.25420      8.34551      8.44700         0.048101     -0.063213      0.004273
Mn	      8.33209      4.18850      8.46517         0.010347      0.015217     -0.032534
Mn	      4.22016      4.23406      4.31611         0.014289     -0.033824      0.100219
Mn	      4.18623      8.24894      4.29161        -0.038096      0.012147     -0.066527
Cr	      8.30979      8.28149     12.71547        -0.061302      0.093864      0.005722
Cr	      4.22727      2.12035      6.36534         0.022888      0.003862      0.012679
Fe	      8.26301      4.19003      4.29453         0.077671     -0.009878      0.065741
Fe	      6.26582      6.24300      8.42334        -0.065687      0.076781      0.116488
Ni	      2.13825      6.21412      8.44220         0.005088      0.069859      0.079298
O	      2.23848      2.18997      2.00371         0.068289      0.095821     -0.024325
O	      4.22229      4.06207      2.34503         0.046626      0.025357     -0.042108
O	      4.17284      2.03886      4.35106        -0.005007      0.114449     -0.026329
O	      6.29737      4.17765      4.19011        -0.086873     -0.009637     -0.090867
O	      6.26396      2.10046      6.41464         0.025827     -0.011930     -0.028641
O	      8.33808      4.18264      6.39262         0.038980     -0.053763      0.106615
O	      2.03182      4.16138      4.12292        -0.035653     -0.021265     -0.025144
O	      4.19645      6.29980      4.24347        -0.052479      0.014647     -0.006386
O	      4.19624      4.10672      6.21661        -0.054582      0.053943     -0.098662
O	      6.37224      6.22469      6.50382        -0.002592     -0.005119     -0.217336
O	      6.21145      4.21530      8.66090        -0.050310     -0.082262      0.088558
O	      8.30467      6.14193      8.41267         0.078996     -0.019670      0.006944
O	      2.08766      6.31421      6.43801         0.054844     -0.031818      0.086209
O	      4.11005      8.30872      6.24428         0.030848      0.008573     -0.051226
O	      4.20128      6.36419      8.56289        -0.018776      0.014377     -0.077097
O	      6.17854      8.26850      8.50689        -0.036097     -0.082760      0.028074
O	      6.17817      6.12936     10.53509         0.054139     -0.055105     -0.001846
O	      8.43670      8.38185     10.69716         0.062750     -0.071973      0.036337
