# total energy = -102.34879373 eV
 
CRYSTAL
PRIMVEC
0.000004 2.132326 2.130383 
5.995874 0.074716 -2.206974 
-1.993110 6.747914 -4.612058 
PRIMCOORD
16 1
Li	      0.10680      2.44800      1.82301         0.006598      0.003621     -0.004967
Li	      1.94035      2.45249     -0.31078         0.025332     -0.011541      0.012589
Li	      3.95356      2.26571     -2.22826         0.004115     -0.014848      0.008876
Li	      1.98872      4.17257     -2.03531         0.016142      0.006416      0.002086
Ti	      4.02770      4.47550     -4.48010         0.057691     -0.090890      0.094164
Ti	      1.91885      6.83087     -4.69782        -0.264762      0.132376     -0.136475
Ni	      0.10702      4.25767      0.01235        -0.080036      0.085504     -0.082225
Ni	      0.01139      6.65784     -2.39409         0.001053      0.010248     -0.007640
O	      3.96844      4.66759     -2.53712        -0.055090      0.145515     -0.140186
O	      4.03704      1.99992      0.12751        -0.021838     -0.141124      0.142357
O	      2.05783      6.86124     -2.59684         0.205003      0.022764     -0.027871
O	      2.04902      2.26641     -2.25884         0.162581      0.019730     -0.020685
O	      3.94900      6.54943     -4.41836        -0.141557     -0.062943      0.063788
O	      0.08219      6.59556     -4.46378         0.294150      0.106936     -0.111020
O	     -0.07693      4.55581     -2.42266        -0.203252     -0.088335      0.088546
O	     -0.09063      2.26913     -0.12963        -0.006131     -0.123429      0.118663
