# total energy = -231.61370536 eV
 
CRYSTAL
PRIMVEC
0.012126 6.193592 6.223049 
6.513138 -0.003700 6.238835 
4.337840 4.135182 0.001802 
PRIMCOORD
36 1
Li	      4.37011      2.06532      2.14798         0.019925      0.014400      0.024947
Li	      6.47090      8.25926     10.32959        -0.028338     -0.014086     -0.018340
Li	     10.79607      6.21908      8.38758        -0.001342     -0.043214      0.014961
Li	      6.51604      6.15666      4.16131         0.037696     -0.007208     -0.013673
Li	      4.38128      4.17067      4.10715         0.066056      0.001797     -0.014643
Li	      6.50010      4.11496      6.32595        -0.000777     -0.063665      0.079792
Li	      8.78304      6.21972     10.23494         0.044926      0.034627     -0.029667
Li	      8.72916      8.22932      8.31849         0.033418     -0.025981     -0.005078
Li	      6.54542      6.16309      8.29701         0.019410      0.037600      0.015322
Mn	     10.78078      4.12489      6.27699        -0.040837      0.045931      0.019828
Mn	      2.19532      0.00901      2.10706        -0.006065      0.022641      0.118751
Mn	      4.34614      6.21095     10.29817        -0.091872      0.031302     -0.002184
Mn	      2.22362      4.16314      6.20899         0.035895     -0.018802     -0.015834
Cr	      2.14067      4.12730      2.15359        -0.045736      0.010710      0.006581
Cr	     10.82879      8.23782     10.36854         0.010705     -0.035950     -0.102020
Fe	      8.55556      2.06382      6.24161        -0.032317      0.023727     -0.057712
Fe	      4.34920      2.14531      6.25430         0.047121     -0.075291     -0.045381
Fe	      4.51144      6.11657      6.23963         0.042096      0.001009     -0.015644
O	      2.15282      2.01577      1.98362        -0.021165     -0.003747      0.095819
O	      4.20345      4.10979      1.98926        -0.012282     -0.016546     -0.025820
O	      4.35873      1.94051      4.28733         0.004025      0.015230     -0.160389
O	      6.70258      4.11140      4.00110        -0.023086     -0.005675     -0.006807
O	      6.54626      1.94122      6.20668        -0.105481     -0.017781      0.027576
O	      8.56756      4.09777      6.36090         0.037684      0.005037      0.011037
O	      2.02223      4.18563      4.21612        -0.003776      0.023489     -0.004261
O	      4.32436      6.24921      4.31244         0.039112      0.030603     -0.186661
O	      4.44144      4.11104      6.17183        -0.025083      0.073351      0.016064
O	      6.54373      6.34855      6.22939         0.046926      0.016762     -0.007743
O	      6.66019      4.10466      8.42092        -0.035338      0.027235      0.043422
O	      8.69133      6.12146      8.20882        -0.032861     -0.016236      0.135638
O	      2.21781      6.19157      6.30166         0.009865     -0.025660     -0.012822
O	      4.21967      8.30947      6.17742         0.029724     -0.023022     -0.000770
O	      4.41754      6.20427      8.16107        -0.022984      0.021853      0.144143
O	      6.51274      8.40577      8.14470         0.030733     -0.034962     -0.013638
O	      6.34032      6.14214     10.51519        -0.002813     -0.009416      0.033477
O	      8.77251      8.33079     10.45452        -0.023164     -0.000062     -0.048270
