# total energy = -217.75834643 eV
 
CRYSTAL
PRIMVEC
0.022449 6.146370 6.161394 
6.352833 0.013279 6.170878 
4.235516 4.104101 0.008658 
PRIMCOORD
36 1
Li	      0.04989      0.06715      0.05299         0.045675      0.087353     -0.014159
Li	      2.06569      2.01017      0.09429        -0.098716      0.000141     -0.007474
Li	      2.15758      6.22072      8.12159         0.000690      0.039663     -0.037608
Li	      6.33895      2.05621      8.14532        -0.036130      0.008084     -0.055286
Li	      2.15160      2.02136      4.06433         0.023122     -0.018682     -0.010928
Li	      8.50451      6.15990      6.26011         0.033372      0.006810      0.077677
Li	      4.23182      6.15958      6.22289        -0.013352     -0.053031      0.005065
Li	      8.47721      8.18112      8.20426        -0.022885     -0.018864     -0.007980
Li	      6.38237      6.16279      8.19339         0.036294     -0.025795     -0.012744
Mn	      4.21245      0.05180      4.11090        -0.086739     -0.203788      0.380052
Mn	      4.28997      4.09764      4.10149         0.011946      0.183150      0.245779
Mn	      4.24767      8.15681      4.09156        -0.047086      0.024321     -0.117432
Mn	      8.46151      6.18941     10.27233         0.037212      0.021573     -0.046505
Cr	      6.35492      4.13928      6.23613        -0.131845     -0.011123      0.007036
Cr	      6.37004      8.14804      6.22673         0.222025     -0.063349     -0.211254
Ni	      4.24226      8.19248      8.18766        -0.117650     -0.282405     -0.027864
Ni	      6.37588      8.19568     10.28285         0.077977     -0.017728      0.012310
Ni	      8.50026      4.10535      8.16228         0.023200      0.029945     -0.080385
O	      2.30944      2.10347      2.03860        -0.294430     -0.136139      0.001441
O	      4.21848      4.02879      2.17239         0.187985      0.361572      0.030007
O	      4.30166      2.07038      4.10443        -0.107472     -0.067998     -0.197123
O	      6.31613      4.11485      4.21089        -0.042404      0.110828     -0.069705
O	      6.35213      2.20292      6.15600        -0.046001     -0.116849      0.069777
O	      8.34304      4.14198      6.07860         0.080729      0.013682     -0.191718
O	      2.20349      4.15996      4.15890         0.074415      0.070914     -0.012586
O	      4.11122      6.16767      4.08833        -0.115379      0.059328     -0.015259
O	      4.24980      4.11081      6.06425        -0.019398     -0.004934     -0.090206
O	      6.34593      6.13905      6.17185        -0.004364      0.062920     -0.010411
O	      6.43909      4.08695      8.26416        -0.137068      0.025565      0.207429
O	      8.46362      6.12444      8.37731        -0.023548      0.132257      0.154387
O	      2.12910      6.03922      6.03884         0.006283      0.111635     -0.080474
O	      4.38946      8.16945      6.04829        -0.090145      0.003724      0.135068
O	      4.21496      6.23679      8.37197         0.057738     -0.198551     -0.105345
O	      6.21037      8.21682      8.18176         0.346784      0.059213      0.114496
O	      6.40380      6.09225     10.30477         0.106829     -0.132324     -0.027653
O	      8.46029      8.17416     10.27000         0.062333     -0.061118     -0.010427
