# total energy = -228.61327990 eV
 
CRYSTAL
PRIMVEC
-0.008355 6.231597 6.492668 
6.070255 0.024494 6.458800 
4.052837 4.138243 0.010322 
PRIMCOORD
36 1
Li	     10.07749      4.20761      6.47782        -0.026719      0.018003     -0.039958
Li	      8.04911      2.13077      6.48547         0.024169     -0.016195      0.026452
Li	      2.08483      6.26723      8.65256         0.046573      0.009027      0.037137
Li	      8.04085      4.23973      4.37261         0.038020      0.064855      0.033583
Li	      8.09775      4.13203      8.45644        -0.004273     -0.002539     -0.045855
Li	      2.11565      2.01686      4.24091         0.049706      0.002879     -0.063275
Li	      4.06947      2.01482      6.41380        -0.019660      0.013127     -0.051135
Li	      4.02114      6.24555      6.59952        -0.008378      0.003238      0.035470
Li	      8.04849      8.34855      8.70653        -0.049573      0.023653      0.043927
Mn	      3.99575      2.10036      2.12240         0.023252      0.051223     -0.046673
Mn	      0.00722      2.04157      2.13580        -0.017584     -0.003219      0.006240
Mn	      6.10878      4.18821      6.47548         0.004792     -0.004810      0.040742
Mn	      2.04651      4.19975      6.45507        -0.036988      0.007534      0.003908
Mn	      6.07276      6.24747      8.66175         0.022319     -0.000676      0.034029
Cr	      4.07785      4.14612      4.30743        -0.111716      0.097693      0.002189
Cr	     10.06205      8.28173     10.81596         0.007721      0.013018      0.019276
Co	      1.99454      6.18605      4.33735        -0.020906      0.028456     -0.018459
Cu	      6.11779      2.11783      4.40343         0.035718     -0.101019      0.029213
O	      7.95298      4.17002      6.44208         0.046933     -0.001246      0.024357
O	      2.10818      2.04307      2.18248         0.056005      0.016069      0.033590
O	      4.02789      4.16559      2.27720         0.033902     -0.070606      0.033419
O	      4.17892      2.19048      4.27975        -0.100502     -0.123302      0.005763
O	      6.03879      4.11925      4.38547         0.056397      0.047992     -0.092699
O	      6.04305      2.14745      6.69584        -0.023211      0.021432      0.041909
O	      2.00679      4.19384      4.47159         0.008347     -0.029987     -0.064161
O	      3.95359      6.21853      4.17980        -0.002600     -0.039875      0.060318
O	      4.04690      4.20570      6.33186        -0.021384     -0.033207     -0.004802
O	      6.10753      6.30208      6.63159        -0.006979     -0.026395     -0.036762
O	      6.03510      4.07556      8.72826        -0.024040      0.040322      0.127606
O	      7.98784      6.22099      8.84492        -0.018520     -0.014294      0.050588
O	      2.02968      6.09064      6.27703        -0.025533      0.016376     -0.050293
O	      4.16839      8.29301      6.35531         0.002260     -0.003645     -0.042707
O	      4.14800      6.34101      8.67021        -0.029336      0.000473     -0.017517
O	      6.00854      8.40115      8.36757         0.002307      0.030263     -0.077732
O	      6.12595      6.17780     10.70866         0.030167     -0.011235     -0.006561
O	      8.06967      8.12178     10.83057         0.059314     -0.023384     -0.031128
