# total energy = -227.32405268 eV
 
CRYSTAL
PRIMVEC
0.016251 6.185334 6.238230 
6.327792 0.014750 6.239820 
4.221485 4.127708 0.006780 
PRIMCOORD
36 1
Li	      6.37213     10.21515      8.37719        -0.015361     -0.010053     -0.001339
Li	      8.51826     10.20702     10.34964         0.038614      0.020281      0.018551
Li	      6.46525      8.26366     10.29998         0.014684      0.018053      0.041001
Li	      8.39937      4.17661      8.38081        -0.019701      0.052817     -0.003346
Li	      6.28057      4.15483      6.22802        -0.011646     -0.003547     -0.030328
Li	      6.23701      4.24108     10.31684        -0.010833     -0.035908      0.038478
Li	      8.34218      6.23459     10.39532         0.012854     -0.034248     -0.004410
Li	      6.36777      8.24094      6.27725        -0.040292     -0.029862     -0.019856
Li	      8.41891      8.26281      8.51868         0.020659     -0.022030      0.074588
Mn	      6.39405      6.17297     12.38291         0.012148     -0.117542     -0.108317
Mn	      8.40392      2.12871      6.18201         0.096147      0.029335     -0.153526
Mn	      6.28572      2.20348      8.33401        -0.005667     -0.290900      0.035588
Mn	      4.23269      4.11194      4.13443        -0.026251     -0.070181      0.055477
Mn	      4.20645      6.17242      6.31201         0.024225      0.054398      0.053390
Cr	      2.12833      2.05571      4.12722        -0.035994      0.021869      0.168988
Cr	      8.42976      6.17305      6.26226        -0.134147      0.050116     -0.260556
Co	      4.29668      8.25725      8.33569         0.414973     -0.049880      0.089673
Ni	      6.34976      6.18597      8.39153         0.121686     -0.190708     -0.072572
O	      2.09949      2.09693      2.03965        -0.142728      0.017017      0.048914
O	      4.24352      4.12600      2.11902        -0.035855      0.531528     -0.017927
O	      4.14463      2.15663      4.09811        -0.119690      0.200966      0.891001
O	      6.16636      4.19674      4.14282        -0.064586     -0.045564     -0.022105
O	      6.23079      1.99550      6.26418         0.009575     -0.081170      0.141229
O	      8.60783      4.14064      6.21979         0.091757     -0.021956     -0.010929
O	      2.31159      4.04863      4.14307         0.076178      0.031124     -0.017391
O	      4.31847      6.07927      4.19706        -0.066135     -0.012112     -0.141638
O	      4.22174      4.06666      6.06968        -0.015545      0.016137     -0.089681
O	      6.42637      6.14979      6.16968        -0.039552     -0.008010     -0.076896
O	      6.31009      4.08975      8.33646         0.002331      0.116700     -0.042060
O	      8.46776      6.24230      8.22223         0.011558     -0.044872      0.108381
O	      2.03624      6.30334      6.23860        -0.105760     -0.070674      0.013124
O	      4.28006      8.29774      6.39101        -0.203223      0.295441     -1.101752
O	      4.28299      6.31674      8.30311        -0.106335     -0.605233      0.001097
O	      6.19909      8.17214      8.33207         0.281643      0.255827      0.137465
O	      6.37061      6.17029     10.47138         0.018957      0.033990      0.220456
O	      8.45966      8.27177     10.56249        -0.048687     -0.001150      0.037227
