# total energy = -231.13680353 eV
 
CRYSTAL
PRIMVEC
0.004212 6.283076 6.215585 
6.176975 0.014513 6.205547 
4.130885 4.194763 -0.003165 
PRIMCOORD
36 1
Li	      4.17800     10.41632      6.19557         0.019282     -0.023721      0.030687
Li	      4.16027      6.31132     10.35406         0.009525     -0.010005      0.000535
Li	      6.17535      8.32340     10.36296         0.018657     -0.060801     -0.019375
Li	      4.10716      6.28511      2.12051         0.008542     -0.017519     -0.010851
Li	      8.22806      4.24613      8.31742        -0.000363     -0.001079     -0.003752
Li	      4.11583      4.16839      4.10991        -0.029568     -0.055299     -0.026394
Li	      2.01594      4.18912      6.15640         0.001995     -0.031776     -0.000217
Li	      4.12644      6.33375      6.15967         0.021846      0.008051      0.024798
Li	      6.21870      6.23720      8.37662        -0.010973     -0.012024      0.017956
Mn	      6.15642      4.20738      2.08303        -0.025877     -0.023778     -0.024867
Mn	      4.19202      8.36603      8.29090         0.011464      0.013981     -0.002010
Mn	      6.16961      4.21042      6.16679        -0.020446      0.003943      0.016252
Mn	      2.09452      6.20332      4.14543         0.045762      0.019635      0.020790
Mn	      4.12545      4.25022      8.31464        -0.024224      0.006621     -0.025419
Cr	      8.24821      2.13836      6.19215        -0.018654      0.055608      0.049073
Cr	      4.13739      2.08151      6.19381        -0.017780     -0.000886     -0.011727
Co	      6.15257      6.29502      4.12836        -0.004777      0.012800     -0.034161
Co	      0.02289      4.18807      4.15873        -0.007193      0.028254      0.035832
O	      2.04337      1.97279      2.09286        -0.024085      0.008870      0.002931
O	      4.27117      4.14742      2.05656        -0.022883      0.079612     -0.001985
O	      3.98176      2.07850      4.19839         0.040138     -0.007539      0.055162
O	      6.16116      4.34533      4.09713        -0.007519      0.045028     -0.024011
O	      6.18144      2.26200      6.14735         0.024554     -0.029045      0.015480
O	      8.11852      4.21079      6.26297         0.023126     -0.005167     -0.012847
O	      1.94784      4.04908      4.13243         0.013327     -0.039021      0.007108
O	      4.12167      6.42095      4.14013        -0.062229      0.035210     -0.001424
O	      4.24041      4.09103      6.17034        -0.056325      0.009876     -0.047998
O	      6.24721      6.18308      6.06714        -0.027576      0.011142     -0.003598
O	      6.07463      4.24655      8.34623         0.026186     -0.001547      0.003998
O	      8.23497      6.40086      8.27198         0.000232     -0.009877     -0.015694
O	      2.06925      6.40444      6.18795         0.010409     -0.017585      0.018008
O	      4.05811      8.39584      6.14443         0.035386      0.000831     -0.067494
O	      4.01624      6.26517      8.28335        -0.003280     -0.052325     -0.003525
O	      6.28107      8.52663      8.29847         0.055352      0.038250      0.001385
O	      6.34790      6.16177     10.36326        -0.013345     -0.000271      0.014349
O	      8.35749      8.42020     10.44710         0.011314      0.021555      0.023005
