# total energy = -225.76207703 eV
 
CRYSTAL
PRIMVEC
-0.014275 6.370791 6.321724 
6.142047 -0.052416 6.360051 
4.084665 4.263636 -0.025779 
PRIMCOORD
36 1
Li	      8.27251     10.41124     10.56045        -0.010911      0.015649      0.011795
Li	     10.01334      6.48784      8.46850         0.030654      0.047032      0.026229
Li	      8.13513      4.33127      8.43312         0.025204     -0.000065      0.045468
Li	      8.21251      6.34623      6.51535         0.004453      0.023938      0.002969
Li	      6.05624      4.30377     10.46893         0.062398      0.036113     -0.024630
Li	      8.13425      6.44383     10.45387         0.059399     -0.044736      0.001855
Li	      2.03856      4.26401      6.31274         0.060369     -0.008786     -0.024510
Li	      4.09300      6.32793      6.28712        -0.015791     -0.028236     -0.025787
Li	      8.24099      8.26282      8.62753        -0.033964      0.026257      0.070479
Mn	      2.05714      6.33501      8.39200         0.069090     -0.001614     -0.033016
Mn	      4.08096      8.46828      8.38386        -0.024072     -0.104172     -0.111866
Mn	      6.10384      6.40581      4.23447        -0.033574     -0.067142      0.026125
Mn	      4.02832      4.26985      4.22506         0.038935      0.066722      0.036372
Mn	      6.16205      4.22951      6.42133        -0.045353     -0.003235      0.022621
Cr	      8.18186      8.46585     12.63732         0.051307     -0.015329      0.027218
Cr	      6.17955      6.29498      8.46880        -0.014225      0.023521     -0.059040
Cu	      6.09246      6.31025     12.54627        -0.018428     -0.008666     -0.046427
Ni	      6.16730      8.39819     10.56240        -0.078405      0.078445      0.015274
O	      8.10211      6.33192      8.46578         0.016756      0.025637     -0.005429
O	      2.18251      2.15136      2.03453         0.010627      0.018220     -0.059541
O	      4.17698      4.07963      2.19170        -0.007452     -0.049124      0.043059
O	      4.03361      2.26366      4.07176        -0.077589      0.020397     -0.022070
O	      6.05711      4.33434      4.09232        -0.052743      0.016248      0.017069
O	      6.18857      2.28116      6.30791        -0.025143      0.015458      0.078471
O	      8.22765      4.11052      6.30761        -0.183786      0.012248      0.013060
O	      2.13695      4.08841      4.27673        -0.008416      0.016223     -0.031521
O	      4.16474      6.19223      4.16703         0.035758     -0.008558     -0.016672
O	      4.16373      4.22660      6.09612        -0.005399     -0.055795     -0.051945
O	      6.16555      6.15734      6.40205        -0.005250     -0.018994      0.042967
O	      6.09414      4.30326      8.42825         0.001926      0.010022     -0.072686
O	      1.91972      6.46997      6.45488         0.088091     -0.012300      0.047585
O	      4.05587      8.45096      6.48661         0.023525      0.064940      0.128010
O	      4.03155      6.54086      8.44543         0.009982      0.057637      0.016268
O	      6.02199      8.39415      8.45420        -0.029710     -0.056138     -0.026307
O	      6.11293      6.38504     10.49920        -0.045440     -0.103732     -0.105260
O	      8.16383      8.44508     10.65914         0.127178      0.011916      0.043814
