# total energy = -225.29590336 eV
 
CRYSTAL
PRIMVEC
0.015901 6.323309 6.150607 
6.408393 0.022707 6.143368 
4.285945 4.224183 0.001992 
PRIMCOORD
36 1
Li	      6.45144      6.25178     12.16273        -0.035502     -0.005420     -0.033010
Li	      8.52733      8.42547     12.12119         0.063660     -0.002456      0.012054
Li	      6.26240      4.21599      1.97859        -0.043855      0.040338      0.004273
Li	      8.68703     10.50552     10.31720         0.028457     -0.000613      0.011972
Li	      6.52352      8.36190     10.30763         0.038413      0.001007      0.026431
Li	      4.31179      6.20599      2.10553         0.018111      0.003805     -0.039703
Li	      4.31621      4.26229      4.02752         0.027297      0.003268      0.040204
Li	     10.60435      8.50252     10.32886        -0.039626      0.016240     -0.005733
Li	      8.41641      6.50067     10.30275        -0.065775      0.015222      0.024519
Mn	      2.17787      4.22926      2.06355        -0.003222     -0.003416      0.012815
Mn	      6.42127      6.28898      4.10102         0.026254     -0.048258     -0.205507
Mn	      6.45121      4.20375      6.14583         0.095194     -0.146345     -0.056636
Mn	      2.09970      4.28406      6.07086        -0.061947      0.008522     -0.040848
Mn	      8.59488      8.51449      8.30393        -0.015980     -0.021828      0.183819
Cr	      4.23644      2.09983      2.06387         0.003543      0.028235      0.020142
Cr	      6.45849      6.40168      8.28420         0.021997     -0.007613      0.093455
Cu	      4.39304      2.13197      6.07554         0.280773     -0.136588     -0.003431
Cu	      4.18414      6.39182      6.08981        -0.227451     -0.054111     -0.058273
O	      6.32268      2.34645      6.14514         0.172132      0.025012      0.062052
O	      2.07682      6.12787      6.11752         0.092834      0.140661     -0.008046
O	      2.21537      2.00009      2.20534        -0.071275     -0.066056      0.028943
O	      4.10010      4.10374      1.99740        -0.019503      0.018554      0.012326
O	      4.10808      2.08863      4.06980        -0.051203      0.010920     -0.079088
O	      6.40028      4.36397      4.26659         0.023088      0.024467     -0.027005
O	      8.37816      4.14410      6.26093        -0.012053      0.021653     -0.078688
O	      2.17622      4.05155      4.06785         0.030536     -0.028551     -0.009086
O	      4.53867      6.32590      4.13759        -0.013960     -0.009465     -0.065580
O	      4.44843      4.40232      6.30215         0.143634     -0.014663     -0.093106
O	      6.64931      6.41065      6.10283        -0.168663     -0.023772      0.049558
O	      6.56826      4.37287      8.10874         0.012674      0.001298      0.036172
O	      8.50005      6.50300      8.16526        -0.027162      0.127769      0.098617
O	      4.27384      8.34185      6.22634        -0.114637      0.126805     -0.007758
O	      4.45163      6.33669      8.16230        -0.036748     -0.067313      0.087190
O	      6.31568      8.41848      8.11593        -0.019994     -0.012855      0.021396
O	      6.42859      6.35915     10.18028        -0.024604      0.015277      0.008562
O	      8.56778      8.47057     10.14171        -0.025437      0.020271     -0.023001
