# total energy = -231.43896197 eV
 
CRYSTAL
PRIMVEC
0.008125 6.271921 6.283696 
6.244309 0.015905 6.276095 
4.188731 4.201572 -0.014734 
PRIMCOORD
36 1
Li	      4.20073      2.12510      2.14423         0.016692     -0.058016     -0.047354
Li	      6.28350      8.34355     10.42054         0.027972     -0.006876     -0.011113
Li	      8.33482      4.32123      8.47841        -0.005083      0.024487      0.005652
Li	      4.08995      4.15331      4.22724         0.009787      0.013262     -0.031558
Li	      4.15681      2.19744      6.28802         0.032861     -0.058556     -0.002072
Li	      0.03213      4.16299      4.17094        -0.008736     -0.045546      0.025894
Li	      8.37100      6.27910     10.39050         0.026300      0.037620      0.087912
Li	      2.17790      4.17871      6.21386        -0.011554      0.031990      0.004749
Li	      8.36208      8.34125      8.36708         0.006084      0.055113      0.018921
Mn	      2.10136      8.34373      6.25182         0.072371     -0.127506     -0.100982
Mn	      6.28101     10.34691      8.37575         0.109803     -0.010528     -0.097436
Mn	      2.10875      2.18978      4.16881        -0.160248      0.028864      0.085874
Mn	      6.23246      4.22722      6.27302         0.051049      0.089376      0.017255
Mn	      6.34286      6.36395      8.38963        -0.131696      0.003945     -0.053037
Cr	      4.16043      0.02730      4.18482        -0.025844     -0.027862     -0.065785
Cr	     10.37226      6.33131      8.39623        -0.014124      0.024046      0.089145
Fe	      4.19675     10.37779      6.23048         0.047390      0.073188      0.002152
Co	      4.15513      6.27264      6.21063         0.202664     -0.124749      0.260937
O	      2.00647      1.96103      2.12145         0.006518      0.022973      0.004594
O	      4.26133      4.26736      1.96238         0.006923     -0.029358     -0.022910
O	      4.01256      2.03946      4.16715        -0.007087      0.040465      0.015166
O	      6.32159      4.30629      4.19750        -0.026321     -0.018145     -0.065963
O	      6.33754      2.13499      6.33805        -0.061757     -0.040865      0.017795
O	      8.30488      4.24790      6.20403         0.019716      0.075632     -0.006213
O	      2.10667      4.02020      4.18315         0.024061     -0.049021      0.031365
O	      4.31909      6.30845      4.11010         0.139146     -0.035343     -0.257258
O	      4.36370      4.26304      6.24279        -0.184194      0.794481     -0.089241
O	      6.27282      6.26004      6.16887        -0.426969      0.011061     -0.085283
O	      6.28024      4.17477      8.24167         0.022713     -0.001577      0.096551
O	      8.39704      6.30738      8.40039         0.049898      0.040929     -0.036535
O	      2.02543      6.20387      6.30451         0.216235     -0.052196      0.059931
O	      4.02228      8.39582      6.30351         0.049431     -0.643395     -0.026086
O	      4.10626      6.25926      8.43553        -0.100232     -0.047327      0.153310
O	      6.26091      8.42030      8.38767         0.005769      0.011734     -0.046153
O	      6.16572      6.31937     10.54799         0.032827      0.008013      0.034322
O	      8.33027      8.50745     10.60331        -0.012365     -0.010312      0.033455
