# total energy = -228.35180142 eV
 
CRYSTAL
PRIMVEC
0.003555 6.260315 6.377765 
6.248922 0.013203 6.368203 
4.176691 4.177924 -0.001843 
PRIMCOORD
36 1
Li	      0.14781      6.29878      6.30804         0.074646     -0.008764      0.012959
Li	      2.07593      8.21335      6.39865        -0.004993      0.014345     -0.000362
Li	      2.11058      6.26964      8.20961        -0.002895      0.002667     -0.019507
Li	      8.36371      4.19070      4.27901        -0.063668      0.020025     -0.021341
Li	      6.29656      6.25011      4.31139        -0.015209     -0.012258     -0.018074
Li	      8.31999      6.23694      6.36819         0.018229      0.000178      0.026714
Li	      2.06024      6.29104      4.42326         0.017132     -0.021721     -0.033780
Li	      2.06163      4.38121      6.34681        -0.021180      0.018891     -0.022230
Li	      4.04739      6.27701      6.41416        -0.034508     -0.017282     -0.016435
Mn	      4.15334      8.34422      8.39591        -0.000184      0.066853     -0.014285
Mn	      4.23596      6.20605      2.12553        -0.016625     -0.058981      0.005008
Mn	      4.15250      4.17074      4.34071         0.029932      0.090478     -0.043921
Mn	      4.17021      8.35141      4.45159         0.000582     -0.007442     -0.076030
Mn	      8.27094      8.41265      8.48171        -0.019089     -0.036064     -0.056400
Cr	      2.11773      4.18297      2.11696         0.125937     -0.006948      0.024500
Cr	      6.30834      4.18662      6.39802         0.008009      0.060932     -0.085275
Fe	      6.24219      6.33106      8.49875         0.052832     -0.032822     -0.058437
Cu	      6.27978      8.31165     10.67512         0.019344      0.034207      0.109243
O	      2.08701      6.28943      6.33002         0.065928      0.062768     -0.067242
O	      2.12559      2.17301      2.12497         0.047586      0.040220      0.000775
O	      4.11105      4.17709      2.07457        -0.023985     -0.107250     -0.044001
O	      4.23186      2.19800      4.09319        -0.020046     -0.034485     -0.033182
O	      6.14462      4.09027      4.47121         0.017069      0.045034      0.014073
O	      6.22921      2.23526      6.58414         0.005214     -0.040213     -0.184361
O	      8.16715      4.17961      6.46056         0.037935     -0.014350      0.067879
O	      2.18666      4.15761      4.14918        -0.029706     -0.034807     -0.027134
O	      4.22790      6.16968      4.07594         0.006721     -0.016182      0.173392
O	      4.30370      4.16051      6.50887        -0.074708     -0.001034      0.074271
O	      6.24918      6.05407      6.47227        -0.003011      0.027892     -0.007006
O	      6.32471      4.18760      8.50159        -0.035800      0.040432      0.046067
O	      8.33834      6.27251      8.46429        -0.038028     -0.057843      0.015126
O	      4.15746      8.36272      6.44899        -0.016639     -0.022425      0.080136
O	      4.22229      6.28012      8.48827        -0.084421     -0.018920      0.015945
O	      6.19645      8.29489      8.34982        -0.041533      0.075634     -0.023663
O	      6.24075      6.29648     10.48844        -0.034890     -0.060029      0.146341
O	      8.29162      8.38885     10.41267         0.054020      0.009264      0.040240
