# total energy = -229.65374047 eV
 
CRYSTAL
PRIMVEC
-0.003714 6.262121 6.135768 
6.368307 -0.015062 6.147192 
4.239998 4.176572 -0.004431 
PRIMCOORD
36 1
Li	      8.44403      4.18146      4.07954        -0.088386      0.023185     -0.026676
Li	      6.37190      8.34317     10.19061         0.047588     -0.023330     -0.016061
Li	      2.09450      4.19200      2.13116        -0.010715     -0.027036      0.037643
Li	      2.11987      2.15111      4.11398         0.015125      0.082399     -0.040016
Li	      4.18312      4.18382      4.11704        -0.045676      0.026714     -0.010538
Li	      0.06508      4.14397      4.10510         0.059109      0.000747      0.074531
Li	      2.09620      4.16689      6.07774        -0.085227      0.018126      0.045426
Li	      4.26293      6.24444      6.08693         0.020663     -0.023744     -0.000321
Li	      4.23893      4.17932      8.19086        -0.004393     -0.001866     -0.024508
Mn	      8.51923      8.34579     12.24160        -0.067294      0.029883      0.257510
Mn	      6.42299     10.34860      8.25202         0.018083      0.032461     -0.037654
Mn	      4.24445      2.12289      2.13321        -0.048111     -0.013872      0.066764
Mn	      6.33175      4.19501      6.04747         0.015889     -0.190623     -0.022222
Mn	      2.15353      6.18866      4.12923        -0.138796     -0.065251      0.034361
Cr	      4.21123      6.29430      2.09753         0.080343      0.013459     -0.268900
Cr	      4.22991      2.09874      6.06152         0.115276     -0.024077     -0.052084
Fe	      6.30260      6.25791      8.25518         0.079614     -0.070888     -0.021059
Ni	     10.57894     10.39618     12.23973        -0.028665      0.069068     -0.071132
O	      2.01820      2.08369      1.93569        -0.097675      0.077056      0.011337
O	      4.28826      4.23627      1.98365        -0.144689     -0.021632      0.114447
O	      4.21197      2.09000      4.05092         0.002975      0.037200      0.011251
O	      6.37688      4.17517      4.13568         0.012813     -0.027406      0.088456
O	      6.30398      2.14642      6.17517        -0.065618      0.155255     -0.001690
O	      8.38624      4.20009      6.08954        -0.048928      0.026404     -0.035207
O	      2.11146      4.32039      4.12015         0.010686     -0.001868      0.044850
O	      4.09525      6.28072      4.02880         0.007026      0.010408      0.152901
O	      4.43309      4.07325      6.10820         0.028962      0.090166      0.004727
O	      6.45971      6.13001      6.18696        -0.021594     -0.062701     -0.116783
O	      6.35325      4.16091      8.05460         0.014079     -0.030663     -0.013416
O	      8.51117      6.26253      8.14586         0.027420     -0.024002      0.022717
O	      2.08999      6.27160      6.14672         0.068060     -0.023461     -0.001257
O	      4.17143      8.40462      6.33129         0.061452     -0.170876     -0.048808
O	      4.31994      6.30574      8.20442        -0.050234      0.073626      0.004091
O	      6.35614      8.24101      8.16144         0.108151      0.066818     -0.043009
O	      6.51941      6.21499     10.20460         0.113356     -0.033688      0.063264
O	      8.51307      8.18259     10.39016         0.039330      0.004010     -0.182937
