# total energy = -103.42998214 eV
 
CRYSTAL
PRIMVEC
-0.000279 2.095794 2.096939 
6.264596 4.216629 -6.316576 
-4.179202 2.107999 -2.108568 
PRIMCOORD
16 1
Li	     -3.95282      2.15521     -2.15463         0.005719      0.002769     -0.001133
Li	     -2.09894      4.23900     -2.14314        -0.013651     -0.013429      0.014692
Li	     -0.21143      4.12456     -4.12492        -0.015600     -0.006044      0.004969
Li	     -2.10367      2.18897     -0.09492         0.002775      0.013499     -0.012643
Ti	     -0.10887      2.07691     -2.07669        -0.278403     -0.071798      0.072054
Ti	      4.27324      4.23846     -4.23333         0.187754      0.073222     -0.070948
Ni	      2.08643      6.28627     -4.19096         0.013991      0.021238     -0.018992
Ni	      2.03327      4.16759     -2.07141         0.058251      0.051567     -0.055232
O	      0.00377      6.40830     -4.31373        -0.024301      0.060553     -0.064023
O	     -0.01807      4.13122     -2.03670        -0.113905     -0.038569      0.042703
O	      2.22985      4.21749     -4.21895         0.052676     -0.036144      0.038134
O	      0.00779      2.19370     -0.09912        -0.014561      0.103786     -0.103113
O	      1.97336      2.15566     -2.15644        -0.037582     -0.121735      0.118926
O	      1.99710      6.27107     -6.27231        -0.195408      0.085074     -0.083349
O	     -1.96556      2.08958     -2.09096         0.277130      0.007303     -0.007893
O	      4.18377      6.20487     -4.10777         0.095113     -0.131293      0.125847
