# total energy = -226.42071669 eV
 
CRYSTAL
PRIMVEC
0.005252 6.150019 6.260974 
6.333824 0.005710 6.260514 
4.207535 4.084556 0.019786 
PRIMCOORD
36 1
Li	     10.53583      4.08703      6.27887        -0.003919     -0.022506      0.003029
Li	      8.45936      8.20663     12.45203        -0.002349      0.020402      0.023465
Li	      4.27403      8.20082      8.24885        -0.008443     -0.013580     -0.089176
Li	      8.48219     10.21519     10.50689         0.029722      0.003954      0.010240
Li	      4.22783      4.07611      4.20701         0.006698     -0.009554     -0.017941
Li	      6.32646      4.09949      6.34160         0.018161      0.048658      0.090993
Li	      6.32535      8.17640      6.31870        -0.017442     -0.036066      0.018342
Li	      8.40582      8.21289      8.36522        -0.045368      0.027697      0.024260
Li	      6.31952      6.15203      8.39421         0.004308      0.026060     -0.024559
Mn	      6.27832     10.19653      8.29775         0.051637     -0.044777     -0.089410
Mn	      2.19292      2.01725      4.17627         0.015348      0.018361      0.018931
Mn	      4.25706      2.10220      6.26831        -0.023134     -0.007165      0.003009
Mn	     10.47867      8.23307     10.47355        -0.013817      0.041702      0.037109
Mn	      4.18928      6.07604      6.26736        -0.005899      0.032376      0.038528
Cr	      6.35791      2.06063      4.20592        -0.006558     -0.010639     -0.000256
Cr	      2.14079      4.08721      2.06281         0.024042     -0.030385      0.023129
Ni	      6.32768      2.05406      8.32473         0.014760      0.029024     -0.016038
Ni	      2.05793      6.14004      4.23658         0.004953     -0.063072      0.002056
O	      2.08087      2.02207      2.19304         0.078757     -0.029615     -0.014869
O	      4.26078      4.11254      2.10092         0.033757     -0.157986      0.009558
O	      4.33625      2.05571      4.35589         0.002795     -0.006413      0.033551
O	      6.37147      4.13562      3.99884        -0.023613     -0.062731      0.037428
O	      6.20993      2.11232      6.23067        -0.023517      0.021197     -0.028200
O	      8.43534      4.23226      6.37624         0.009466      0.083845     -0.047818
O	      2.09455      3.99908      4.09621         0.069947     -0.033207     -0.006219
O	      4.12775      6.11460      4.27685         0.091668      0.042389     -0.000573
O	      4.24339      4.08348      6.29781         0.018890     -0.086406     -0.023314
O	      6.46138      6.13069      6.14865         0.058987     -0.004426      0.007016
O	      6.45028      4.08400      8.51173         0.020475      0.122938     -0.069647
O	      8.47648      6.08808      8.28490        -0.100433      0.004493     -0.063454
O	      2.04013      6.12067      6.37306         0.012482     -0.013071      0.084072
O	      4.19403      8.05620      6.11843         0.003028     -0.014899      0.036696
O	      4.03264      6.17359      8.17835        -0.092944      0.000421      0.043007
O	      6.27026      8.32569      8.46001         0.010464      0.024022     -0.064767
O	      6.38076      6.19423     10.41408        -0.108368      0.002278      0.023813
O	      8.38614      8.17324     10.45181        -0.104542      0.096681     -0.011990
