# total energy = -231.24273993 eV
 
CRYSTAL
PRIMVEC
0.019572 6.155738 6.188633 
6.655104 0.031007 6.174264 
4.465188 4.123070 -0.007779 
PRIMCOORD
36 1
Li	      0.04395      6.17048      6.18948         0.029897     -0.008169      0.029294
Li	      2.32128      8.21380      6.13549         0.015211      0.039559      0.032519
Li	      6.65847     10.18038      8.24265        -0.110778     -0.021474     -0.038464
Li	      4.65297      8.13808      8.19618         0.045758      0.012846      0.056785
Li	      8.89476     10.25244     10.29908        -0.015065     -0.042637     -0.006266
Li	      6.67850      8.25217     10.25200         0.005472      0.017752     -0.009000
Li	      6.71428      4.09772      6.12446         0.009665     -0.019540     -0.014558
Li	      6.55673      8.27969      6.28578        -0.021583      0.023159     -0.015478
Li	      8.62605      8.32779      8.33295        -0.029094      0.070862     -0.010681
Mn	      6.70269      2.16193      8.19619         0.034586     -0.115540     -0.050891
Mn	      2.33202      4.06520      2.00668         0.051541     -0.083041     -0.031130
Mn	      2.35846      2.02040      4.13905         0.002055      0.006358     -0.126617
Mn	      4.55440      4.08967      4.07855         0.002994     -0.004162     -0.130900
Mn	      8.79968      6.31099     10.33470        -0.028445     -0.044375      0.187062
Mn	      4.37329      6.17401      6.23209        -0.046816     -0.036025      0.052795
Cr	      4.47819      2.09001      6.19666         0.028779     -0.027060     -0.047944
Cr	      6.66177      6.23636      8.21103        -0.045107      0.001812     -0.036215
Cu	     11.04315      8.31325     10.35169        -0.062010      0.119605      0.042229
O	      8.76497      8.14075     10.31836        -0.066806     -0.030882     -0.029273
O	      2.21086      2.05979      2.20257         0.043938      0.032672      0.040550
O	      4.45552      4.28259      2.11722         0.058188      0.063607      0.048086
O	      4.47503      1.99825      4.22342         0.029457      0.042099      0.014940
O	      6.50230      4.26036      4.09815        -0.011742     -0.001653      0.023575
O	      6.46808      2.11581      6.32671        -0.057607      0.079266     -0.030234
O	      8.93762      4.20264      6.30493        -0.028349      0.021655     -0.007080
O	      2.50297      4.08113      3.97804         0.131963      0.056113      0.024202
O	      4.20281      6.26027      4.09558         0.005533     -0.155511      0.013868
O	      4.48535      4.17669      6.01605         0.024651     -0.002133      0.115233
O	      6.84427      6.20051      6.11612         0.088798     -0.011989      0.050986
O	      6.85709      4.11462      8.33951        -0.188666      0.051963     -0.030036
O	      8.77793      6.20805      8.27698        -0.068833     -0.019452     -0.003778
O	      2.21560      6.14729      6.00454        -0.013323     -0.024280     -0.144307
O	      4.44249      8.07282      6.13529         0.039202     -0.016136      0.029844
O	      4.67109      6.11455      8.13144         0.066997      0.008366      0.021030
O	      6.65717      8.16630      8.22705         0.019007     -0.034022     -0.008766
O	      6.88708      6.12867     10.23751         0.060530      0.050386     -0.011378
