# total energy = -232.00038634 eV
 
CRYSTAL
PRIMVEC
0.070836 6.366144 6.349877 
6.223241 0.054355 6.366695 
4.166011 4.273001 0.018397 
PRIMCOORD
36 1
Li	      2.29019      6.38289      8.49456        -0.052843      0.018015      0.004142
Li	      4.19638      6.38345     10.47537         0.009051      0.026525     -0.031878
Li	      6.22714      2.30669      8.48512         0.007632     -0.042821      0.022123
Li	      6.16065      6.34449      4.34392         0.009930     -0.023499      0.000716
Li	      6.23510      4.29972      6.47936        -0.030527     -0.001301     -0.006290
Li	     10.39172      8.50545     10.51566        -0.013352     -0.062442     -0.001384
Li	      4.27143      6.33767      6.50596         0.004179     -0.020693     -0.017433
Li	      4.33727      4.53255      8.44360         0.004686      0.048589      0.033045
Li	      6.19647      6.32220      8.43824         0.020132      0.002667      0.056630
Mn	      6.20706      0.09933      6.35378        -0.015110     -0.039676      0.031835
Mn	      6.34389      8.63204     10.55164         0.094079      0.037250     -0.068791
Mn	      8.21721      4.27857      8.51897         0.105544     -0.094816      0.027582
Mn	      4.20974      4.29079      4.24973         0.031627      0.063462     -0.030737
Mn	      8.38283      6.44944     10.54158         0.026038      0.053001     -0.075489
Mn	      6.31455      8.40195      6.42626        -0.010458     -0.003120      0.032565
Cr	      8.29274      2.21952      6.35831         0.030852      0.003045     -0.006608
Cr	      4.22106      8.43093      8.45596        -0.058406     -0.014182      0.155318
Ni	      8.34937      6.43882      6.48557         0.052777     -0.061760     -0.059927
O	      2.12821      2.22097      1.99967        -0.047172     -0.040844      0.016246
O	      4.02287      4.13785      2.00088         0.034861      0.054342     -0.081832
O	      4.29780      2.29277      4.17506         0.002837     -0.105449     -0.054483
O	      6.13398      4.21847      4.21601        -0.043136      0.027715      0.027474
O	      6.28732      2.23893      6.39629         0.025282      0.024374     -0.036740
O	      8.42204      4.26933      6.29991        -0.004758     -0.041931     -0.006391
O	      2.21462      4.19308      4.39126        -0.079365     -0.002630     -0.022896
O	      4.08103      6.22684      4.21527         0.012135     -0.000948      0.067896
O	      4.04263      4.20718      6.43655        -0.087577      0.103821      0.043304
O	      6.33544      6.52567      6.36788        -0.081015      0.101376     -0.033805
O	      6.35520      4.29769      8.53350        -0.049456     -0.022913      0.039556
O	      8.32027      6.23020      8.57963         0.040361      0.037852      0.030799
O	      2.04230      6.40687      6.25424         0.049010     -0.046032      0.061869
O	      4.25555      8.46338      6.40861         0.075430      0.012259     -0.055193
O	      4.21692      6.50281      8.50608        -0.052404      0.033363      0.037807
O	      6.21845      8.55114      8.36354         0.045218     -0.017106     -0.048244
O	      6.41803      6.63073     10.70188        -0.075114     -0.036963     -0.029558
O	      8.30169      8.60534     10.70038         0.019029      0.031470     -0.021230
