# total energy = -238.89154049 eV
 
CRYSTAL
PRIMVEC
0.042388 6.314214 6.379342 
6.274424 0.021762 6.399713 
4.199747 4.240339 -0.002327 
PRIMCOORD
36 1
Li	      2.22291      6.35764      8.53982        -0.021246     -0.033086     -0.023990
Li	      4.14010      8.30611      8.51616        -0.015927     -0.051981     -0.030572
Li	      4.18812      6.37495     10.51433         0.011551      0.019691     -0.006309
Li	      2.07657      4.14923      2.12507        -0.032870      0.022017      0.026181
Li	      6.31480      6.32469      4.24625        -0.021660     -0.039776      0.020972
Li	      6.26988      4.36000      6.40052         0.028599      0.018234     -0.013213
Li	      0.06619      4.21406      4.21886         0.000264      0.011754      0.036293
Li	      4.30123      6.34676      6.51676        -0.033162      0.007483     -0.059643
Li	      6.21363      6.29254      8.47705         0.066449      0.005023      0.054510
Mn	      8.37744      2.20927      6.44637        -0.025575      0.005898     -0.084742
Mn	      6.31413      8.49880     10.55079         0.063425     -0.008488     -0.015558
Mn	      4.21035      4.17472      4.19060         0.055878     -0.047541      0.026434
Mn	      8.35615      6.32476      6.39745         0.025496      0.012918      0.018522
Mn	      2.13251      6.30821      4.24782        -0.095831      0.049591      0.011431
Mn	      6.30565      8.38770      6.40792         0.009250      0.007584      0.007968
Mn	      4.27319      4.33442      8.51894         0.025074     -0.001980      0.021751
Cr	      4.17362      4.22974      0.04761        -0.039073      0.047621     -0.052888
Cr	      0.04900      2.13283      2.17193         0.021297      0.068289     -0.084173
O	      2.03268      2.12748      1.98657         0.008633     -0.008210      0.050596
O	      4.16685      4.36032      2.03592         0.015265     -0.023153      0.008763
O	      4.33213      2.15769      4.19085        -0.080130      0.016830      0.010453
O	      6.14117      4.12641      4.21975         0.000909      0.026886     -0.016608
O	      6.26820      2.05976      6.50960        -0.020927     -0.007718      0.062525
O	      8.43389      4.39221      6.40644        -0.011687      0.004105      0.011207
O	      2.23682      4.13956      4.38783        -0.020601     -0.013943      0.002668
O	      4.11716      6.21044      4.18205         0.052262     -0.002868      0.032461
O	      4.25518      4.03361      6.37978         0.028700      0.026602     -0.000566
O	      6.40394      6.41731      6.38071        -0.015163     -0.011601      0.021022
O	      6.21696      4.17988      8.61416         0.037118     -0.026797      0.022561
O	      8.47342      6.51388      8.67563         0.012504     -0.027345      0.007390
O	      2.05557      6.19796      6.25522         0.006788     -0.021284      0.003767
O	      4.13454      8.54173      6.36222        -0.025633     -0.024961     -0.012507
O	      4.24813      6.21206      8.49796         0.019595      0.034745     -0.011186
O	      6.47044      8.46774      8.38079        -0.033075     -0.008295     -0.049371
O	      6.43962      6.50884     10.74373        -0.003256     -0.015354      0.002850
O	      8.27958      8.55088     10.81870         0.006759     -0.010889      0.001002
