# total energy = -195.22033666 eV
 
CRYSTAL
PRIMVEC
-0.018975 6.252618 6.241805 
6.210491 0.034853 6.187704 
4.131861 4.124124 0.031669 
PRIMCOORD
36 1
Li	      6.17246      6.28159     12.40302        -0.147266      0.039674     -0.099197
Li	      6.14090      8.30097     10.34798        -0.037479     -0.045902      0.035490
Li	      8.24820      4.26688      8.32019        -0.003641      0.009946     -0.078464
Li	      8.23106      6.26524      6.29522        -0.070224     -0.009144     -0.023423
Li	      6.16490      4.21074      6.25500         0.005573      0.022345     -0.046449
Li	      2.06315      6.14653      4.12294        -0.058174     -0.006789     -0.034526
Li	      6.22760      8.26001      6.25799         0.151211     -0.076046      0.011766
Li	      4.16676      6.19824      6.21144         0.043123     -0.103977      0.084844
Li	      4.13840      4.12789      8.20651         0.014073      0.072239     -0.098002
V	      8.19796      8.29504     12.36826        -0.224731      0.684126     -0.252568
Cr	      6.19737     10.34587      8.34623         0.415439      0.008243      0.131746
Co	      8.28948      4.15707      4.19042        -0.057849     -0.114091     -0.185944
Cu	     10.22850      6.30080      8.31049        -0.004616      0.013159     -0.258689
Ni	      0.05149      4.17808      4.17081        -0.179447      0.140572      0.121877
Ni	      4.14826      8.34395      8.30481        -0.081150     -0.137544      0.066287
Ni	      6.20778      6.24521      4.28149         0.193377     -0.221699      0.064980
Ni	      4.09348      4.18426      4.22170         0.204066     -0.177597      0.074200
Ni	      6.25139      6.25611      8.24621        -0.330176     -0.015983      0.136529
O	      8.25523      6.25543      8.30048         0.025462      0.027625      0.037667
O	      2.12345      2.02891      1.94890         0.086563      0.015932      0.178068
O	      4.22784      4.16154      2.21257        -0.078599      0.108660      0.025921
O	      4.10283      1.97502      4.09293         0.059653      0.010282     -0.091877
O	      6.30789      4.18829      4.08841        -0.242890      0.040857     -0.146354
O	      6.40204      2.10966      6.29381        -0.147071     -0.022842      0.060460
O	      8.28433      4.04421      6.04512         0.051440     -0.261332      0.560020
O	      2.09344      4.10220      4.19841         0.004960      0.104347      0.000058
O	      4.18289      6.23978      4.07014        -0.005632      0.092385      0.184206
O	      4.13598      4.18583      6.09414        -0.073868     -0.051878      0.125334
O	      6.16750      6.20984      6.29276         0.078254      0.080954     -0.041001
O	      6.19699      4.17601      8.37505         0.019738      0.056435      0.023531
O	      2.04308      6.42426      6.27151         0.008955     -0.228432      0.030932
O	      3.93537      8.33845      6.27476         0.263139      0.015155     -0.007688
O	      4.08041      6.29026      8.48612        -0.004436     -0.038451     -0.431262
O	      6.13590      8.39687      8.29541        -0.059031     -0.053344      0.002900
O	      6.02698      6.22003     10.28372         0.235216      0.000047     -0.029596
O	      8.26985      8.42392     10.53507        -0.053963      0.022066     -0.131777
