# total energy = -195.09219855 eV
 
CRYSTAL
PRIMVEC
0.038128 6.078548 6.316963 
6.181067 0.010700 6.343938 
4.110332 4.060930 0.016894 
PRIMCOORD
36 1
Li	      8.23620      8.08000     12.62487        -0.048722      0.070046      0.042264
Li	      6.20904     10.06356      8.46823         0.009239     -0.031611      0.081908
Li	      4.24644      8.10041      8.47916         0.010233     -0.033413      0.034406
Li	      6.20229      8.09747     10.48752        -0.050679      0.096959     -0.009848
Li	      4.17003      4.00764      4.26100         0.005307     -0.030846      0.030613
Li	      4.16781      2.07490      6.27846         0.033002     -0.009542     -0.006420
Li	     10.26833      8.15841     10.61110         0.012753     -0.060474      0.044729
Li	      6.20547      8.11832      6.48306        -0.014729     -0.064618      0.055451
Li	      6.17761      6.17217      8.45528         0.013480      0.003806     -0.123786
V	      2.05206      4.00596      2.14431        -0.172022      0.006751     -0.535479
Cr	      4.08989      6.17882      6.32069         0.083798      0.150787      0.054694
Co	      4.14888     10.12413      6.34366         0.678837     -0.100654     -0.500019
Cu	      6.19759      6.07039      4.27926        -0.038376      0.259047     -0.070854
Cu	      8.15257      8.15977      8.42683         0.080294     -0.125235     -0.023426
Ni	      4.18771      6.09371     10.50597        -0.228738     -0.026757      0.029129
Ni	      4.11081      6.06358      2.13008         0.035598      0.087177      0.079919
Ni	      6.17954      4.00568      6.28223         0.169434     -0.136045      0.118201
Ni	      8.20278      6.16972     10.57248         0.255260     -0.150294     -0.128844
O	      6.24322      8.10609      8.46189        -0.151709     -0.017596      0.036544
O	      2.04906      2.15744      2.21736         0.096040     -0.022071     -0.027758
O	      3.98933      4.04221      1.96567         0.157304     -0.206226      0.713200
O	      4.04360      1.92555      4.25696         0.241644      0.139924     -0.037449
O	      6.30456      4.10724      4.28280        -0.016396     -0.172959     -0.150269
O	      6.20259      1.93256      6.44812         0.066414      0.927518     -0.163909
O	      8.35624      4.04241      6.51816        -1.215060     -0.036038      0.221630
O	      2.12157      4.06767      3.98030        -0.045664      0.097324      0.303765
O	      4.15246      6.08790      4.28787        -0.179562      0.043027      0.036646
O	      4.15995      4.19947      6.40288        -0.208046     -0.138650     -0.022009
O	      6.04371      6.07627      6.24219        -0.200262      0.101491      0.041169
O	      6.38162      4.07874      8.33300        -0.084674      0.118426      0.229900
O	      8.25395      6.03706      8.54167        -0.054900     -0.029886      0.044666
O	      2.10675      6.08772      6.22664         0.719255     -0.120148      0.241945
O	      4.13141      8.05260      6.35931         0.061075     -0.584469     -0.057163
O	      4.15001      6.04482      8.33370        -0.040829      0.147664     -0.061359
O	      6.14545      6.08859     10.78448        -0.006232     -0.101724     -0.539121
O	      8.28119      8.21224     10.39622         0.027634     -0.050693      0.016931
