# total energy = -194.10799334 eV
 
CRYSTAL
PRIMVEC
-0.023004 6.276097 6.273476 
6.202361 0.025805 6.223485 
4.143259 4.159833 0.008682 
PRIMCOORD
36 1
Li	      1.98127      2.13726      0.21211        -0.113053      0.015782      0.118133
Li	      2.03047      0.20831      2.16393        -0.067696      0.018260     -0.061819
Li	      3.96978      2.15150      2.18020         0.036428      0.070360     -0.100712
Li	      4.09293      0.02705      4.10373        -0.010251     -0.032073      0.001185
Li	      0.13158      2.08792      2.13515        -0.034718     -0.099435     -0.079621
Li	      2.03924      4.08408      2.13087         0.040825      0.014822     -0.023781
Li	      2.13493      2.08938      4.02018        -0.173151      0.179961      0.058488
Li	      8.29652      6.22893      6.23501        -0.002686     -0.039105      0.095775
Li	      6.13372      4.23346     10.30647         0.145804     -0.066265      0.002806
V	      4.06018      6.43107      6.29229         0.101006      0.268876      0.076092
Cr	     10.14343      4.23237      6.23690        -0.094388      0.431199      0.505209
Co	      2.10499      4.15997      6.23665        -0.034783      0.004041      0.599195
Cu	      6.19111      2.11333      4.14752         0.235714     -0.055742     -0.462935
Cu	      4.18313      4.10855      4.12562        -0.551468      0.344263     -0.030343
Cu	      6.22906      6.23513      8.36513        -0.005420      0.072263     -0.114009
Ni	      6.25422      4.13197      6.24898         0.114775     -0.032151      0.117643
Ni	      8.27199      6.29243     10.36511         0.171076     -0.239564     -0.079457
Ni	      8.28592      8.32986      8.34973        -0.277568     -0.061955     -0.169501
O	      6.08951      4.27261      8.30203         0.207366     -0.101574      0.001857
O	      8.17944      6.27306      8.34804         0.131122     -0.238271     -0.060914
O	      2.03677      2.13267      2.13180         0.098282     -0.032431      0.062697
O	      4.18440      4.19014      1.78795         0.124874     -0.194272      0.103054
O	      4.24068      2.17541      4.13795         0.119016      0.019550     -0.029835
O	      6.15639      4.07094      4.22803        -0.005454      0.068749     -0.211533
O	      6.20660      2.02621      6.11792        -0.055423     -0.376176      0.702674
O	      8.33990      4.16310      6.17318         0.003194     -0.011439     -0.102120
O	      2.15513      4.20891      4.36916         0.435577     -0.046718      0.064030
O	      4.13714      6.13808      4.44481         0.037305     -0.166897     -0.136842
O	      4.14005      4.33267      6.46935        -0.792697     -0.246002     -0.658109
O	      6.01608      6.26665      6.29270         0.413387      0.644328     -0.309095
O	      2.18748      6.24827      6.26379        -0.132170     -0.667565      0.082728
O	      4.14637      8.27326      6.22177         0.538863      0.123818     -0.101936
O	      4.16872      6.28655      8.16236        -0.053629      0.204320     -0.034293
O	      6.30694      8.23626      8.21937        -0.060726     -0.071749     -0.369074
O	      6.23434      6.33946     10.53840        -0.160592      0.097385     -0.031422
O	      8.20080      8.32637     10.20396        -0.328742      0.201408      0.575785
