# total energy = -101.73575996 eV
 
CRYSTAL
PRIMVEC
0.000163 2.082383 2.083476 
9.118657 -4.294641 4.297589 
2.164714 4.144835 -2.063371 
PRIMCOORD
16 1
Li	      0.44825      1.95640      2.20867        -0.007695     -0.032785      0.032155
Li	      2.43199      1.86523      0.21612        -0.011458      0.015683     -0.010785
Li	      4.35893      4.13939      0.02292        -0.024366     -0.008849      0.010097
Li	      6.33523      2.13698     -0.05852        -0.002233      0.031891     -0.032161
Ti	      6.61682     -0.08577      2.16749        -0.584791      0.123434     -0.122991
Ti	      9.27992     -0.12593      4.29132         0.855069     -0.121040      0.119764
Ni	      4.19308      2.15619      2.00799         0.120262     -0.109211      0.111607
Ni	      6.85927     -2.17877      4.26164        -0.006075      0.001249     -0.003392
O	      6.96806      1.83901      2.32635        -0.117424     -0.131022      0.127024
O	      6.89735     -0.05254      4.21780         0.015088      0.111956     -0.109746
O	      8.91951     -0.14958      2.23133        -0.015288     -0.106129      0.108014
O	      8.90258     -2.04320      4.12476         0.117954      0.137649     -0.133871
O	      1.91652      4.21158     -0.04897        -0.807580      0.003214     -0.004183
O	      2.26649      2.01363      2.15048        -0.165948     -0.006058      0.003939
O	      4.49353      1.98956      0.09224         0.038393      0.136686     -0.141310
O	      4.82344     -0.08395      2.16535         0.596092     -0.046669      0.045841
