# total energy = -195.34042041 eV
 
CRYSTAL
PRIMVEC
0.065063 5.976960 6.426949 
6.267447 0.047308 6.444428 
4.205230 4.023683 0.003874 
PRIMCOORD
36 1
Li	      4.19385      4.03988      0.06440         0.003549      0.020592     -0.074143
Li	      6.16535      4.00177      2.18870         0.043100     -0.022040      0.031514
Li	      4.28127      2.09165      2.29436         0.049507     -0.091956      0.045203
Li	      4.29462      6.05270     10.68394         0.001009     -0.056910      0.031079
Li	      2.23202      4.10664      2.15281        -0.066278     -0.088349     -0.008434
Li	      4.25234      3.98843      4.15065         0.036113     -0.015142      0.021121
Li	      8.41260      5.99042      6.39044         0.052553      0.001248     -0.103440
Li	      8.36885      6.03812     10.69307        -0.054530      0.064955      0.085688
Li	      6.33838      6.00291      8.61540        -0.050036      0.086987      0.099426
V	      2.12804      2.02750      0.19585        -0.436578     -0.121176     -0.529989
Cr	      8.36833      8.05208      8.58902        -0.401882      0.436547      0.213206
Co	      6.33360      7.98974     10.66811         0.018470     -0.019525     -0.036361
Cu	      4.12575      5.94154      2.20501         0.145979     -0.000340     -0.127802
Cu	      2.21325      1.99123      4.32333         0.290943     -0.216911     -0.274144
Cu	      6.28387      4.04135      6.40103         0.002271      0.023700      0.202677
Cu	      6.38621      4.10572     10.68577        -0.241173      0.328610     -0.077905
Cu	      2.14374      4.00891      6.39700         0.123614      0.055270      0.582969
Cu	      4.25463      6.01758      6.46762        -0.235557      0.133111      0.083197
O	      8.45492      6.13122      8.53363         0.215783     -0.117831      0.033383
O	      4.00593      8.00234      6.46428         0.181010      0.077709     -0.050305
O	      4.22894      5.88971      8.51174         0.016478     -0.284689     -0.028576
O	      6.45142      8.01028      8.64720         0.132476     -0.016891     -0.373142
O	      6.34182      6.07368     10.70640        -0.021316     -0.563480     -0.056889
O	      1.97175      1.99779      1.93142        -0.197955     -0.005129      0.431375
O	      4.17816      4.07447      2.13456        -0.111008      0.328641      0.028195
O	      4.31415      2.02551      4.30637        -0.553521     -0.007745     -0.002101
O	      6.29634      4.01561      4.36700         0.043676      0.524643      0.028296
O	      6.43666      2.04271      6.16086         0.102987     -0.150710      0.228028
O	      8.29570      3.86979      6.42840         0.112238      0.244053      0.005239
O	      2.10329      3.93820      4.42998        -0.065689     -0.200030     -0.199788
O	      4.39134      6.13362      4.42963         0.146110     -0.027657     -0.047024
O	      4.29239      4.06395      6.56751        -0.135729     -0.234497      0.050924
O	      6.23154      6.05733      6.59670         0.272947      0.044968     -0.160351
O	      6.15831      3.92135      8.51588         0.162885     -0.163266      0.033265
O	      2.19852      6.07357      6.38631         0.001414      0.050111     -0.003552
O	      8.32153      8.04146     10.60074         0.416142     -0.016871     -0.080837
