# total energy = -193.29894179 eV
 
CRYSTAL
PRIMVEC
-0.019763 6.287394 6.083490 
6.180276 -0.018254 6.081992 
4.120181 4.190966 -0.012268 
PRIMCOORD
36 1
Li	      6.18111      4.20562      2.13864         0.073624     -0.008215     -0.016110
Li	      8.14301      4.14793      3.99996         0.021271     -0.040547     -0.021192
Li	      6.18738      2.18688      3.97631         0.040808      0.038866     -0.003095
Li	      2.03415      4.17386      2.06492        -0.015933     -0.055289      0.005580
Li	      2.03765      2.06703      4.00848        -0.092689     -0.017130      0.009892
Li	      4.20607      4.18247      4.01113         0.035467      0.081129      0.057922
Li	      6.16910      4.21905      6.00992        -0.035653      0.082220      0.032682
Li	      8.23860      6.23448     10.08033         0.018103     -0.030078      0.107926
Li	      6.19506      6.24997      8.11674        -0.055493     -0.008828     -0.006859
V	      6.16015      0.12431      6.05775         0.106731     -0.011459     -0.195358
Cr	      4.10202      6.25515      6.07152        -0.083069     -0.021392     -0.082699
Co	      8.09878      6.31408      5.98924         0.064619      0.100840      0.378194
Ni	      2.06178      8.40011      6.07341        -0.047148     -0.015251     -0.072635
Ni	      4.11090      2.06334      2.14353        -0.131674     -0.102244     -0.078144
Ni	      4.14618      6.28793      2.09145         0.063330     -0.008004      0.021230
Ni	      4.11539      8.35445      4.02714         0.010540     -0.016699     -0.000816
Ni	      6.14122      8.37719      6.06987         0.069335     -0.010891     -0.026459
Ni	      8.21507      8.38514      8.12726        -0.037994      0.030331      0.087211
O	      2.07334      2.10784      1.95899         0.063895      0.021861      0.123168
O	      4.14475      4.11310      1.84335        -0.001498      0.020560      0.039241
O	      4.12613      2.10743      4.18657         0.055708      0.035291      0.366055
O	      6.17448      4.15329      4.09432         0.003723     -0.020457     -0.008035
O	      6.23027      1.92728      6.07861        -0.264483      0.247996     -0.094015
O	      8.44618      4.18754      6.07485        -0.206742      0.141507     -0.016853
O	      1.88231      4.19336      4.15231         0.147877      0.016545     -0.160887
O	      4.08640      6.32088      4.10998        -0.108697     -0.123490     -0.037058
O	      4.02766      4.26520      6.10722         0.157204     -0.368868     -0.036144
O	      6.10071      6.35326      6.06195         0.539928     -0.109683      0.020980
O	      6.10010      4.11633      8.18099         0.074893      0.111668     -0.287452
O	      8.28324      6.31919      7.88272        -0.287244     -0.078307     -0.443039
O	      2.00612      6.27627      6.08060        -0.036313      0.025489      0.020611
O	      4.10049      8.33687      6.08210        -0.026552      0.019292      0.041737
O	      4.11741      6.30088      8.02422         0.012235      0.012931      0.092339
O	      6.17210      8.35462      8.01578        -0.003179     -0.023078      0.147093
O	      6.21061      6.18416     10.35101         0.011565      0.104914      0.023364
O	      8.38627      8.35629     10.13504        -0.136499     -0.021528      0.011625
