# total energy = -198.58151380 eV
 
CRYSTAL
PRIMVEC
0.084902 6.283723 6.220115 
6.217375 0.036577 6.267202 
4.141675 4.216926 0.028108 
PRIMCOORD
36 1
Li	      4.05157      4.20854      0.11720        -0.030000      0.084867      0.065770
Li	      6.38252     10.46566      8.43498        -0.167424      0.138088     -0.037299
Li	      4.29301      8.27740      8.40774        -0.210595      0.162246     -0.086435
Li	      4.10739      0.21055      4.09248        -0.025831     -0.101068      0.132794
Li	      6.06106      2.23681      4.02894         0.073595     -0.014801      0.063138
Li	      2.15113      4.14684      2.04732         0.027688     -0.056974     -0.073695
Li	      6.34044      6.23128      4.26742        -0.120011     -0.022015     -0.040023
Li	      4.10716      2.16860      6.07326         0.096670     -0.038769      0.114061
Li	      4.25911      6.32754      6.42316        -0.073341      0.012583     -0.070332
V	      8.25757      6.31303     10.49320         0.122841      0.439981     -0.452226
Cr	      6.24215      4.22646      6.24155         0.091670     -0.197337      0.120950
Co	      2.08182      2.14791      0.04297        -0.341161      0.007735      0.612392
Co	      4.18969      6.25456      2.08877        -0.032138      0.623747     -0.428469
Cu	      4.21852      4.13618      4.15064        -0.247321      0.414730     -0.556663
Cu	      4.20311      8.36952      4.21727        -0.037641     -0.118280     -0.251515
Ni	      6.25787      8.32514      6.31430        -0.048071      0.081766     -0.027279
Ni	      4.16144      4.29972      8.30950         0.177719     -0.329900      0.148211
Ni	      6.21174      6.39252      8.30038         0.324772     -0.291671      0.040430
O	      4.25032      6.25203      8.39734        -0.110635      0.120136     -0.005347
O	      1.92977      2.08144      1.88927         0.378415     -0.118884     -0.412521
O	      4.14655      4.42592      2.12269         0.015540     -0.795920      0.498483
O	      4.12335      2.22546      4.12671         0.041136      0.296422      0.008566
O	      6.16894      4.21878      4.30432         0.190569     -0.010964     -0.070955
O	      6.34363      2.18515      6.39423         0.161515      0.037069     -0.043072
O	      8.23413      4.02451      6.22843         0.007666      0.014698     -0.082869
O	      2.04519      4.37944      4.25422         0.119834     -0.371019     -0.118147
O	      4.06316      6.16329      4.00153         0.374425     -0.121903      0.426192
O	      4.20492      4.20116      6.21732         0.002883     -0.007749     -0.134650
O	      6.28281      6.23426      6.31964        -0.033954      0.027863     -0.246082
O	      6.24785      4.06978      8.35895        -0.063948      0.414457      0.230283
O	      8.46012      6.40623      8.53099        -0.303053     -0.007277      0.350367
O	      2.18906      6.43014      6.05284        -0.036313      0.010616     -0.019993
O	      4.11937      8.44863      6.18599        -0.001222     -0.078815     -0.145019
O	      6.32275      8.40616      8.25191        -0.018731      0.071462      0.268155
O	      6.50840      6.45734     10.32798        -0.353669     -0.184217      0.222686
O	      8.46638      8.29061     10.54986         0.048124     -0.090903      0.000112
