# total energy = -197.42031027 eV
 
CRYSTAL
PRIMVEC
-0.009545 6.105446 6.294099 
6.386661 0.015732 6.267035 
4.290176 4.082829 -0.021096 
PRIMCOORD
36 1
Li	      2.24564      8.09560      6.30003         0.015724      0.110132     -0.026113
Li	      2.16704      6.14350      8.34699        -0.042389     -0.021915      0.008953
Li	      4.34353      8.13459      8.24187         0.015641      0.140049      0.057152
Li	      8.44149      4.07936      8.24372         0.047120      0.023440     -0.040119
Li	     10.56585      8.25552     10.48908         0.020155     -0.065168      0.015940
Li	      8.44388      6.18912     10.53939         0.129098     -0.004614      0.002286
Li	      6.26321      8.16960      6.49386        -0.000157      0.004440      0.014536
Li	      4.32394      4.07287      8.34181        -0.025549     -0.091487     -0.031849
Li	      6.28183      6.14154      8.33624         0.041386      0.020615     -0.168184
V	      3.88673      4.04868      4.21406         0.246937      0.298027      0.226826
Cr	      6.64931      8.16868     10.32683        -0.137078      0.390449     -0.299010
Co	      0.16471      6.10759      6.17462        -0.059098     -0.056600     -0.281709
Co	      4.13896      6.12990      6.42721        -0.481380      0.425303      0.351624
Cu	      6.38884      2.07799      8.34750        -0.166011     -0.215565      0.183753
Cu	      6.23135      6.04855      4.18775        -0.073928      0.300679     -0.085898
Cu	      4.36283      2.04438      6.27019        -0.220647     -0.107716      0.074278
Cu	      6.46724      4.04579      6.26627         0.128266      0.086768      0.158885
Ni	      4.37380      6.14072     10.39022        -0.114246      0.172411     -0.026796
O	      4.25069      8.32069      6.28707         0.089987     -0.457850     -0.118113
O	      4.21385      6.14947      8.26131         0.066114     -0.000293      0.178438
O	      6.33227      8.19601      8.55127         0.034521     -0.101488      0.062688
O	      1.85557      2.04706      2.28272         0.206678     -0.079634      0.012640
O	      4.27716      4.20726      2.44732         0.023068     -0.084710     -0.319145
O	      4.47646      2.19176      4.31909         0.273127     -0.117034     -0.179892
O	      6.61223      4.09554      4.31187        -0.004174     -0.164882      0.100927
O	      6.64502      2.00450      5.97222         0.048151     -0.008246      0.010137
O	      8.91778      4.27680      6.19758         0.233988     -0.221250     -0.282543
O	      2.16548      3.96337      4.17717        -0.546930     -0.057627     -0.001643
O	      4.05359      5.87138      4.49660        -0.018561     -0.203681     -0.123206
O	      4.09052      3.90241      6.13858        -0.142917      0.396685     -0.050944
O	      6.06597      6.00724      6.22161         0.534239     -0.250406     -0.236709
O	      6.42468      3.92370      8.17654        -0.048069      0.269308     -0.140965
O	      8.78226      6.12923      8.09941        -0.008856     -0.033966      0.246014
O	      2.10288      6.10227      6.34469        -0.388853     -0.016463     -0.125906
O	      6.44162      6.20338     10.35241         0.212244     -0.149141      0.862717
O	      8.48581      8.19390     10.32651         0.112399     -0.128569     -0.029051
