# total energy = -196.67053830 eV
 
CRYSTAL
PRIMVEC
-0.011913 6.144008 6.248213 
6.161533 -0.007440 6.243786 
4.093020 4.078255 0.009796 
PRIMCOORD
36 1
Li	      6.15242      4.06428      2.10985        -0.034093     -0.052488      0.025622
Li	      6.11845      2.07225      4.11706        -0.103221      0.052113     -0.055822
Li	      4.09175      6.13954      2.18829         0.053629      0.071530     -0.015773
Li	      6.11477      6.17345      4.20368        -0.117083     -0.128195      0.145286
Li	      4.05785      4.13099      4.23147         0.089631      0.045249      0.136875
Li	      4.06363      2.14081      6.22148        -0.070329     -0.037007     -0.002043
Li	      4.14465      8.07078      4.22500         0.030379     -0.008980      0.042076
Li	      2.10115      4.03106      6.17578         0.055653     -0.140090      0.091936
Li	      4.11949      6.08195      6.14325         0.193714     -0.131316     -0.111156
V	      0.07196      0.05483      0.04548        -0.181382      0.240881      0.240375
Cr	      8.13345      4.09664      4.17623        -0.663315      0.761991      0.205384
Co	      2.06901      2.05950      0.01097        -0.066241     -0.123850      0.520000
Co	      6.11208      4.09877      6.24026         0.059455      0.152327      0.266095
Ni	      2.09213      6.10209      4.16230         0.823946     -0.545486     -0.064705
Ni	      4.10221      8.16595      8.31038         0.455594     -0.156684      0.327347
Ni	      2.01393      4.08075      2.16835        -0.249083      0.112492     -0.199214
Ni	      8.15278      8.13947      8.29754         0.110968      0.066833     -0.318477
Ni	      6.13222      6.13828      8.30105        -0.014970     -0.154571     -0.293128
O	      2.13652      2.08234      1.93542        -0.202108     -0.142049      0.117614
O	      4.06493      4.08350      1.90185         0.136573      0.195058     -0.298352
O	      4.11010      1.86036      4.09331         0.052493     -0.112935      0.087224
O	      6.25201      4.06000      4.33083         0.395093     -0.113258     -0.365677
O	      6.28303      2.07590      6.26672        -0.438605     -0.491760     -0.201826
O	      8.18387      4.01312      6.21338         0.188723      1.013323     -0.203033
O	      2.04076      4.12725      4.15781        -0.065042      0.481839      0.056680
O	      3.99061      6.13142      4.14683        -0.252133      0.030577      0.067760
O	      4.26700      4.06322      6.27396        -0.239747     -0.004430      0.007781
O	      6.15507      5.93248      6.25458        -0.039383      0.193463      0.034906
O	      6.11739      4.10032      8.13941         0.023897      0.022563      0.203901
O	      8.13325      6.13624      8.41842        -0.094549     -0.057577      0.030929
O	      1.97068      6.28273      6.20811        -0.375787     -1.100463     -0.200128
O	      4.00162      8.29067      6.29840         0.552599      0.300142     -0.270077
O	      4.09213      6.08336      8.47743        -0.009912     -0.064894     -0.059757
O	      6.12087      8.13512      8.29629         0.077781      0.126918      0.088202
O	      6.07881      6.14131     10.56322        -0.068325     -0.018990      0.236938
O	      8.20372      8.27781     10.51486        -0.014823     -0.282274     -0.273764
