# total energy = -199.80363844 eV
 
CRYSTAL
PRIMVEC
0.013261 6.092374 6.079834 
6.507546 0.028398 6.065642 
4.354912 4.068076 0.002882 
PRIMCOORD
36 1
Li	      0.20948      6.13141      6.13650         0.032319     -0.056802     -0.071728
Li	      2.12535      1.96554      0.03826         0.058976     -0.014553     -0.099843
Li	      6.39878      6.13654      4.11374        -0.047636      0.125330     -0.004858
Li	      4.19611      4.11368      4.07972        -0.117310      0.013283      0.114196
Li	      8.59767      6.17110      6.12710        -0.051027      0.122144      0.090720
Li	      2.31947      6.05252      4.16647         0.017215     -0.055523     -0.001383
Li	      6.51427      8.11912      6.08576         0.007592     -0.040198     -0.143328
Li	      4.40584      6.07730      6.07764        -0.001938     -0.105974      0.038118
Li	      6.61894      6.13676      7.96315         0.085327     -0.018857      0.018432
V	      4.39759      0.16483      4.09501        -0.088173     -0.621971      0.369167
Cr	      4.39846      8.03856      4.15294         0.111629     -0.025629     -0.067982
Co	      2.19310      6.10918      8.04220         0.206715      0.112813      0.280875
Co	      2.19334      4.04763      2.08749        -0.080094      0.073744     -0.189431
Co	      4.43577      4.03223      8.07243        -0.098130      0.032579      0.491582
Cu	      4.33649      8.16223      7.96653        -0.105717     -0.019541     -0.113399
Cu	      6.60327      8.12155     10.12953         0.093438      0.120471     -0.120094
Ni	     10.84560      6.07113      8.05585        -0.134618      0.072551      0.187209
Ni	      6.45267      4.11491      6.03381        -0.173752      0.242006      0.263440
O	      6.50810      5.97655      6.05912         0.012114      0.248020     -0.037475
O	      1.99285      2.06049      2.01648        -0.020422     -0.887841     -0.177766
O	      4.33331      4.00427      2.02631         0.771200      0.034040      0.074642
O	      4.27631      1.92429      3.91707        -0.062645      0.233945      0.001742
O	      6.72980      4.01374      3.91363        -0.037616     -0.454108     -0.146767
O	      6.46727      2.20235      5.96731         0.052505     -0.467096     -0.110214
O	      8.47039      4.09609      5.89129         0.243236      0.002101     -0.216413
O	      1.98774      4.08896      4.03176        -0.098033     -0.085136      0.412726
O	      4.32849      6.20032      4.04797        -0.001888      0.014132     -0.144587
O	      4.52647      4.08800      6.23018        -0.116355     -0.056227     -0.493265
O	      6.44229      4.08871      8.19416        -0.381170     -0.048423      0.060445
O	      8.80920      6.04119      8.13154         0.221467      1.063951     -0.272415
O	      2.18874      6.08864      6.23874        -0.024623     -0.051708     -0.092672
O	      4.35732      8.14994      6.00001        -0.054347      0.085945     -0.002523
O	      4.30333      6.15301      8.20387        -0.538611     -0.486856     -0.166039
O	      6.83316      8.17365      8.16231         0.077412      0.315599      0.181296
O	      6.26652      6.10146     10.16531         0.153343      0.347247     -0.069052
O	      8.87511      8.25099      9.99926         0.089615      0.236540      0.156642
