# total energy = -200.24512108 eV
 
CRYSTAL
PRIMVEC
-0.000298 6.045827 6.396106 
6.180215 0.008228 6.387605 
4.127408 4.032295 -0.002065 
PRIMCOORD
36 1
Li	      4.16109     10.00423      6.39658         0.022492     -0.042246     -0.104834
Li	      4.14953      8.08723      8.36623        -0.165769      0.105007     -0.006152
Li	      4.16384      5.99136     10.60049        -0.017276     -0.033189      0.058414
Li	      6.25035      8.03586     10.58957         0.050513      0.001839      0.036968
Li	      2.06959      4.00440      2.13591         0.079277     -0.106275      0.168721
Li	      6.15401      4.04312      6.41585         0.046186      0.074010     -0.178597
Li	     10.22970      8.12752     10.73141         0.043245     -0.020108      0.146187
Li	      6.12319      8.06230      6.46918        -0.038107     -0.063694     -0.199768
Li	      4.09994      6.13612      6.47018         0.070577      0.030428     -0.086875
V	      4.16328      1.92203      6.31339        -0.457748     -0.622226     -0.634753
Cr	      6.18078      2.04039      8.50738         0.223789     -0.054034      0.117520
Co	      2.11706      8.08453      6.40031         0.137361      0.080806      0.096900
Co	      2.05282      2.07561      4.29937        -0.201290     -0.285415     -0.020409
Co	      2.02277      6.01756      4.43067        -0.120246      0.197383      0.436239
Cu	      4.14404      4.02278      4.23610        -0.091427      0.139697      0.026599
Cu	      4.10129      4.07635      8.49948         0.051997     -0.028359     -0.077555
Cu	      6.13562      6.05828      8.56812         0.128408     -0.044460     -0.176444
Ni	      2.08380      6.03991      8.50400        -0.054893      0.188972      0.277388
O	      4.12983      6.01363      8.56517         0.041452     -0.276458     -0.015130
O	      6.26158      8.03872      8.52343         0.359887     -0.006771     -0.040077
O	      1.98605      2.04572      2.05057        -0.116102      0.019747     -0.163729
O	      4.16810      4.09576      2.22737        -0.123888     -0.151919      0.191141
O	      4.12589      2.01583      4.43521         0.095951     -0.038043      0.080984
O	      6.12250      4.23078      4.17582        -0.133462     -0.282504     -0.003077
O	      6.09795      1.99977      6.48049        -0.067125     -0.002613      0.072856
O	      8.26341      4.10609      6.34132         0.022347      0.095693      0.076363
O	      2.11639      3.98268      4.26697         0.429550      0.848864     -0.072635
O	      4.02009      6.02347      4.15267         0.046237     -0.034640      0.011622
O	      4.14649      3.84973      6.24261         0.052502      0.337573     -0.095631
O	      6.35461      6.03109      6.37269         0.108999     -0.018639      0.345949
O	      6.06771      4.04094      8.51243        -0.350290     -0.011114     -0.022324
O	      8.26782      6.08000      8.31247        -0.069588      0.342321      0.175904
O	      2.07742      6.18132      6.42516        -0.159778     -0.012673     -0.739309
O	      3.97620      8.08610      6.39888        -0.079689      0.040962      0.152977
O	      6.35918      6.03947     10.53810         0.246411     -0.050753      0.320859
O	      8.21571      7.94442     10.91778        -0.010503     -0.317168     -0.156291
