# total energy = -102.30415405 eV
 
CRYSTAL
PRIMVEC
4.096097 0.000063 0.000085 
2.048423 4.265065 -6.485328 
2.048075 4.145338 2.084779 
PRIMCOORD
16 1
Li	      6.14399      4.16118      1.89746         0.000065     -0.003942     -0.018945
Li	      2.04795      2.41067     -0.15788         0.002852     -0.005660     -0.004849
Li	      4.09607      4.21161      0.04240         0.001336     -0.017933      0.012253
Li	      2.04881      4.19132     -1.98347        -0.001509     -0.020157      0.033418
Ti	      4.09751      6.20946     -2.10035        -0.002257     -0.292118      0.272716
Ti	      6.14495      6.31616     -4.60150        -0.001868      0.472472     -0.440027
Ni	      4.09635      2.05630     -2.02193         0.002281      0.148603      0.059999
Ni	      4.09649      4.19616     -4.37043        -0.002135      0.002237     -0.013136
O	      4.09648      4.35639     -2.26247        -0.002208      0.297691      0.082970
O	      6.14437      6.29017     -2.26363        -0.002107     -0.112634     -0.057368
O	      4.09598      2.06295      0.06062         0.003576     -0.031218      0.483907
O	      6.14446      4.27152     -0.03641        -0.002648     -0.179445     -0.018175
O	      2.04827      2.19351     -2.31144         0.001459      0.021054     -0.291628
O	      2.04818      4.18735     -4.37833         0.004676      0.004445      0.007189
O	      4.09636      6.22715     -4.28379        -0.002382      0.126241      0.021243
O	      6.14430      8.12169     -4.32862         0.000870     -0.409637     -0.129565
