# total energy = -200.54529796 eV
 
CRYSTAL
PRIMVEC
-0.019676 6.078259 6.140346 
6.193998 -0.079742 6.201260 
4.108256 4.071136 -0.032477 
PRIMCOORD
36 1
Li	      2.08845      8.07781      6.12121         0.080413      0.016761      0.059808
Li	      2.07494      6.12101      8.05819         0.055169      0.016841     -0.026422
Li	      4.03164      2.06849      1.97570        -0.018369     -0.004098     -0.103506
Li	      8.22944      4.03084      4.14288         0.043503     -0.040628     -0.046897
Li	      4.15699      6.04069      2.11269        -0.017876      0.041163      0.093742
Li	      4.20262      1.95996      6.09278        -0.208838      0.021358      0.138481
Li	      4.12516      8.02711      4.21889         0.060092     -0.014041     -0.065415
Li	      1.94292      4.13694      6.09021         0.011717     -0.126061      0.040089
Li	      4.00902      6.10093      6.08309         0.101405     -0.015784      0.107175
V	      6.06588      6.10509      8.14378         0.011596     -1.110770      0.167168
Cr	      8.25964      8.00138      8.17713         0.167362      0.148251     -0.405137
Co	      6.16322      1.99678      4.11780        -0.175180     -0.106598      0.206507
Co	      2.07365      3.99356      2.02031        -0.284620      0.341413      0.127031
Co	      6.20818      3.95147      6.18293         0.026317      0.604958      0.431463
Ni	      4.11066     10.11560      6.12288        -0.160814     -0.018488      0.004706
Ni	      2.09077      6.10647      4.17422        -0.004282     -0.176718     -0.174358
Ni	      2.07562      2.00074      4.11902        -0.063880      0.039527      0.331441
Ni	      4.13153      4.03505      4.11999        -0.134101      0.143907      0.074998
O	      4.10754      8.18113      6.10986        -0.105285     -0.003254     -0.007387
O	      2.02403      2.18960      2.11011         0.019233     -0.050773     -0.145742
O	      3.91326      4.08876      2.00742        -0.033182     -0.006096     -0.019479
O	      4.19490      2.04824      4.08742         0.424187     -0.309202     -0.123909
O	      6.18006      3.95771      4.26426         0.179504     -0.026482     -0.120830
O	      6.20041      2.03239      5.99741         0.024589     -0.170080     -0.403320
O	      8.16531      3.99705      6.37397         0.037787     -0.064352     -0.083264
O	      2.09386      4.05176      3.93056        -0.130090     -0.153342     -0.051466
O	      4.15584      6.00813      4.12844         0.070213      0.218851     -0.109899
O	      4.28737      3.97492      6.22823         0.043337     -0.100197      0.100875
O	      6.21319      5.95252      6.31476         0.129938     -0.452576     -1.364098
O	      6.18588      4.06670      8.16272         0.116602     -0.517939     -0.258133
O	      8.08383      5.96594      8.27878         0.254441     -0.046196     -0.065024
O	      1.96626      6.06963      6.16071         0.111059      0.101659      0.037476
O	      4.25992      5.94906      8.21070        -0.477701     -0.032635      0.103203
O	      6.23473      7.95053      8.22369         0.054818      1.191028      0.575390
O	      6.16182      6.12561     10.13493        -0.057400      0.469910      0.820079
O	      8.08998      8.04895     10.14662        -0.151663      0.190683      0.154654
