# total energy = -203.59256406 eV
 
CRYSTAL
PRIMVEC
-0.028171 6.205207 6.076510 
6.218869 -0.020010 6.068877 
4.128625 4.114561 0.003918 
PRIMCOORD
36 1
Li	      6.20531      6.16364     12.10129        -0.000235     -0.005602     -0.019900
Li	      2.09028      8.20957      6.05087         0.033358     -0.019702     -0.030622
Li	      4.15273      0.06644      4.08436         0.011143      0.015158     -0.014293
Li	      6.13615      2.05652      4.11523        -0.020102      0.020111     -0.005626
Li	      6.26745      6.13879      4.10250         0.007825     -0.020182     -0.031760
Li	      4.17968      4.05414      4.07081         0.033181      0.026279     -0.013346
Li	      6.10571      8.19762      6.05064        -0.000939      0.006193     -0.006471
Li	      4.11532      6.27201      6.02089        -0.070322     -0.006682     -0.048874
Li	      6.15959      6.21785      8.07688        -0.029863      0.004923      0.029228
V	      4.04313      4.20095      8.07426        -0.068142      0.032761      0.037760
Cr	      8.26395      4.12090      8.09049         0.176203     -0.112770     -0.012652
Co	      2.04780      0.01059      2.00527        -0.058017      0.081736      0.003239
Co	      4.11507      2.02726      6.01721        -0.024697     -0.030274     -0.230474
Co	      4.12463      8.27765      4.11102         0.036595     -0.057527      0.314823
Co	      2.03622      6.18490      4.13289        -0.040885      0.005157     -0.005823
Cu	      4.12148      8.25377      8.09325         0.120811     -0.179823      0.024873
Ni	      4.14648      6.15640      2.03395         0.049452     -0.053135      0.000475
Ni	      6.21497      4.11771      5.93859         0.000615     -0.040611      0.050512
O	      2.12008      2.14102      2.01120         0.067226     -0.015744     -0.037973
O	      4.05630      4.05979      2.04515        -0.044135     -0.087482      0.023083
O	      4.15954      2.05767      4.20912        -0.009449      0.021196     -0.030907
O	      6.18507      4.13540      3.87643        -0.002498     -0.005837     -0.285850
O	      6.04095      2.10178      6.10775        -0.152070     -0.120462     -0.205895
O	      8.24146      4.24035      6.10221         0.103265      0.002324      0.035845
O	      1.93117      4.25545      4.03360        -0.097433      0.025286      0.006840
O	      3.98341      6.32929      4.03942        -0.048908      0.073550      0.243554
O	      4.16474      4.00365      6.22584        -0.083350     -0.044648     -0.101968
O	      6.39069      6.10805      6.08068         0.131646      0.217727      0.061757
O	      6.19010      4.08417      8.18042         0.015458      0.215892     -0.005852
O	      8.28855      6.18408      8.14047        -0.140268     -0.044242      0.272285
O	      2.03327      6.20351      6.12274         0.000096     -0.010234      0.067029
O	      4.09945      8.23305      5.92427         0.019940     -0.004771     -0.135539
O	      4.11150      6.11323      8.08344        -0.035220      0.053492     -0.005655
O	      6.23730      8.26202      8.13009         0.053104      0.019711     -0.032091
O	      6.34404      5.99408     10.11871         0.002181      0.029565     -0.042048
O	      8.36109      8.12509     10.01476         0.064434      0.008668      0.132317
