# total energy = -204.62857250 eV
 
CRYSTAL
PRIMVEC
0.059808 6.142906 6.416510 
6.006570 0.050003 6.424843 
4.014490 4.111530 0.022024 
PRIMCOORD
36 1
Li	      6.04055      6.17839     12.75875         0.082400      0.025748      0.174114
Li	      4.12593      8.19713      8.64591        -0.149080      0.134771      0.096121
Li	      4.03297      0.06844      4.30143        -0.192754      0.167584     -0.022389
Li	      6.04919      8.22652     10.63411        -0.248595      0.209525     -0.067801
Li	      6.00723      2.12644      8.53149         0.161575     -0.238219     -0.012208
Li	      2.03655      2.06669      4.24672         0.103130     -0.070542     -0.085283
Li	      6.03934      4.15877      6.35552        -0.085010      0.027617     -0.110528
Li	      6.00850      8.21970      6.53112         0.069772      0.051583      0.017445
Li	      6.05139      6.16436      8.61138        -0.166000      0.130487     -0.089206
V	      8.02076      6.19552      6.43192        -0.156645      0.294851     -0.739947
Cr	      7.95950      2.10865      6.47386        -0.153855     -0.229919      0.609104
Co	      6.01739      4.12877      2.16944        -0.121762      0.501739      0.519778
Co	      4.08092      4.09952      4.26428         0.618494     -0.245149     -0.336447
Co	      8.00936      6.22282     10.67726         0.511030     -0.719160      0.250305
Co	      4.08070      6.14009      6.43165        -0.152118     -0.286051      0.091118
Cu	     10.04567      8.27722     10.73874         0.188210     -0.188255      0.365166
Cu	      4.07095      4.13638      8.57603        -0.451902      0.389182     -0.259784
Ni	      8.01024      4.14096      8.56249         0.666112     -0.372164     -0.079380
O	      6.18534      6.16712     10.74867        -0.175228     -0.243295     -0.072625
O	      2.01861      1.97170      2.05142         0.038846      0.351643     -0.357578
O	      4.12235      4.09715      2.33725        -0.335342     -0.031805      0.216090
O	      4.01324      2.19030      4.41325         0.098736     -0.014269      0.215579
O	      5.95864      4.18220      4.07312        -0.160993     -0.136009     -0.120908
O	      5.88620      2.09677      6.46533         0.154752     -0.006803      0.013851
O	      8.01633      4.15850      6.49670        -0.052125     -0.021080     -0.066053
O	      2.17312      4.22019      4.15757        -0.752914      0.385156     -0.086101
O	      3.93443      6.04917      4.47829        -0.269154      0.486985      0.070829
O	      4.06279      4.13826      6.19347        -0.008696      0.055588      0.137915
O	      6.10425      6.18025      6.41392         0.015061     -0.001089      0.125654
O	      6.00592      4.11748      8.78880        -0.724945      0.058237     -0.089245
O	      8.02189      6.23388      8.47260         0.001758      0.618249      0.199047
O	      2.14580      6.19813      6.58815         0.056890      0.060872     -0.246351
O	      4.01220      8.05598      6.32157         0.018521      0.040847     -0.079022
O	      3.99636      6.14311      8.37802         0.422232     -0.698727     -0.015142
O	      6.13812      8.41271      8.56623         0.803490     -0.665999     -0.097211
O	      7.98535      8.10484     10.91785         0.346109      0.177871     -0.068908
