# total energy = -203.75890480 eV
 
CRYSTAL
PRIMVEC
0.033420 6.152222 6.075894 
6.521249 0.033629 6.076891 
4.369352 4.123205 0.000843 
PRIMCOORD
36 1
Li	      2.18514      2.07227      0.01619         0.006925     -0.016096     -0.087427
Li	      4.29679      2.07002      2.08816         0.045195     -0.148354     -0.039695
Li	      8.51509      4.05184      4.10968         0.064316     -0.032691      0.010129
Li	      6.59890      2.17741      4.04775        -0.006931     -0.091308      0.046167
Li	      6.62293      6.07597      4.03899        -0.003158     -0.010202      0.098411
Li	      4.46551      4.12724      4.04026         0.040466     -0.022970      0.145319
Li	      6.47350      4.14289      5.94752        -0.043434      0.005497      0.032253
Li	     10.87743      8.24561     10.12535         0.028981      0.062711      0.042361
Li	      8.67905      8.24504      8.09297        -0.025913      0.000239      0.008908
V	      6.38308      6.17172      8.18746        -0.073060     -0.033893     -0.139115
Cr	      2.21589      4.12287      6.04603        -0.168597     -0.044549     -0.131756
Co	      4.35867      4.07450      0.07275        -0.239317      0.049806      0.029855
Co	      4.42519      2.07170      6.00389         0.009104      0.058386     -0.121715
Co	      8.80594      6.31614     10.06123        -0.056252      0.325917      0.181302
Co	      4.43776      6.19032      5.97886         0.031106      0.058743      0.047402
Cu	      6.45890      4.17914      2.11865         0.092081     -0.025248     -0.111797
Cu	      0.10391      2.04128      2.07067        -0.067566      0.088577     -0.026898
Cu	      2.24749      4.06118      2.05370        -0.306690     -0.304786      0.044467
O	      6.65973      4.38768      7.99388         0.054228     -0.226036     -0.001080
O	      8.72979      8.10046     10.12785         0.005313     -0.218292     -0.045057
O	      2.11080      2.06767      2.07217         0.110517     -0.174264      0.039684
O	      4.22200      3.99508      2.06163         0.260611      0.251161     -0.958832
O	      4.35730      2.03348      4.28236        -0.036400      0.029908     -0.051215
O	      6.55440      4.11441      3.97218        -0.059053      0.055447     -0.025911
O	      6.45778      1.90620      6.17420         0.041789     -0.056382      0.147820
O	      8.93574      4.15038      6.15075         0.415255     -0.037120     -0.068213
O	      2.15885      4.34667      4.03650         0.028538      0.237866     -0.012261
O	      4.28147      6.22520      4.02649         0.043738     -0.101607     -0.087512
O	      4.21751      4.15233      6.07051         0.136899      0.047006     -0.049070
O	      6.60308      6.27814      6.14061        -0.023234     -0.191665      0.042219
O	      8.70936      6.18474      7.97319        -0.018858      0.159428     -0.083356
O	      2.06807      6.12156      6.18385        -0.343304      0.127028      0.196430
O	      4.53931      8.28278      6.05017         0.049583     -0.007218      0.117665
O	      4.60190      6.17068      8.06603         0.047718      0.028521     -0.001491
O	      6.59747      8.07837      8.02803        -0.025490      0.161984      0.079234
O	      6.60917      6.22457      9.95152        -0.015105     -0.005542      0.732775
