# total energy = -203.35345075 eV
 
CRYSTAL
PRIMVEC
-0.039704 6.175380 6.174864 
6.221494 -0.064673 6.198966 
4.100111 4.084955 0.004933 
PRIMCOORD
36 1
Li	     10.27532     10.17344     12.35092         0.020369      0.031676     -0.065346
Li	      2.06312      2.06292      0.01170        -0.038396      0.022438     -0.054453
Li	      2.11547      6.07154      8.20328        -0.040973      0.001261      0.095080
Li	      6.14948      6.15070      4.16571         0.027672      0.025087     -0.088965
Li	      4.14542      4.04106      4.21577         0.162348     -0.141014      0.010977
Li	      8.15573      6.08833      6.17792         0.029947      0.046900     -0.047332
Li	      6.21211      4.13417      6.17858         0.013410     -0.071258     -0.031420
Li	      2.02922      6.15412      4.17898        -0.117519      0.142545     -0.026685
Li	      6.14003      6.16218      8.19836        -0.053738      0.063038      0.118712
V	      4.07227      6.00668      1.99087         0.436812      0.105227     -0.445404
Cr	      8.25090      4.06023      4.22931        -0.169874     -0.193162     -0.196629
Co	      4.06538      8.16144      8.23964        -0.131743      0.075203      0.207678
Co	      6.16369      2.00679      4.14545         0.203372      0.011560      0.043858
Co	      8.22503      4.06420      8.20959        -0.075952     -0.022343     -0.144822
Co	      0.00951      4.10781      4.08646        -0.290000     -0.226511     -0.130611
Ni	      4.10881      6.11359      6.16135        -0.041034      0.075684     -0.030600
Ni	      2.07141      4.09137      6.15760        -0.092299      0.010247     -0.061082
Ni	      4.06758      4.10435      8.22477         0.141769     -0.231447      0.276286
O	      1.95398      2.16867      2.04091        -0.253869     -0.642655      0.029777
O	      4.00013      4.15674      2.07921         0.021265      0.075448      0.095069
O	      4.15091      1.97002      4.12654         0.033761      0.064696      0.115068
O	      6.24857      3.86179      4.21334         0.043724      0.025631     -0.109096
O	      6.24522      1.98537      6.39080        -0.033839      0.005567      0.041506
O	      8.24106      4.05872      6.25601         0.017519      0.021539      0.101801
O	      1.86408      4.15721      3.95840         0.079935     -0.101215      0.203948
O	      4.09457      6.16284      3.93689         0.076900      0.833925      0.256923
O	      4.00242      4.13962      6.23426         0.084423     -0.027695     -0.194664
O	      6.06767      6.27559      6.16277         0.040235     -0.190608     -0.047349
O	      6.27809      3.97009      8.31538        -0.438665      0.011357      0.412358
O	      8.40492      6.07225      8.22943         0.129683      0.440459      0.022362
O	      2.15222      5.98063      6.17166        -0.027137      0.162759      0.005607
O	      4.20814      8.12951      6.07375        -0.105707      0.010257     -0.414146
O	      4.08632      6.13194      8.34924         0.067407      0.103144     -0.053379
O	      6.09970      8.17224      8.30005         0.297357      0.016935      0.104336
O	      6.12989      6.26717     10.37225        -0.151774     -0.549516     -0.103663
O	      8.35445      8.21377     10.28414         0.134612      0.014840      0.104303
