# total energy = -205.89562740 eV
 
CRYSTAL
PRIMVEC
0.003212 6.298334 6.152830 
6.274461 -0.004625 6.160872 
4.175609 4.197063 0.004217 
PRIMCOORD
36 1
Li	      6.39346     10.45426      8.29921        -0.061287      0.144540     -0.013579
Li	      4.23944      8.27418      8.34565        -0.177743      0.091215     -0.155761
Li	      4.21741      6.27763      2.11178         0.188783      0.004619     -0.058708
Li	      8.31966      4.23419      8.24099        -0.043254     -0.152268     -0.053795
Li	      1.96176      2.23220      3.97874        -0.030871      0.003960     -0.053929
Li	      4.13528      4.26290      4.07930         0.064911     -0.077873     -0.045315
Li	      2.16619      4.14136      6.03355        -0.029780     -0.040088      0.018902
Li	      4.26899      6.16514      6.10648        -0.016292      0.155818      0.037937
Li	      4.11297      4.28109      8.12758         0.027788     -0.039450     -0.082700
V	      4.21461      4.06318      0.21421         0.151163     -0.094495      0.298184
Cr	      8.36181      6.28102     10.21527         0.133404      0.030161      0.104626
Co	      2.07550      2.10055      0.20168        -0.008795     -0.029325     -1.254993
Co	      6.28220      2.06486      4.16851        -0.166218      0.240478      0.022312
Co	      4.07519      2.20761      6.11970         0.446026     -0.278956     -0.001207
Co	      6.15384      4.24596      6.13569        -0.072708      0.204222     -0.061383
Co	      6.30154      4.14403     10.15316         0.015984      0.011207     -0.066668
Cu	      6.23012      6.36829      8.15754         0.135552     -0.149689     -0.108341
Ni	      4.19741      6.28931     10.23525        -0.065888     -0.072891      0.004433
O	      4.34978      6.30620      8.23151        -0.073117      0.021251     -0.054377
O	      2.10263      2.06182      1.97195         0.006008      0.074505      0.593885
O	      4.22376      4.20620      1.93521        -0.056122      0.018583     -0.117027
O	      4.37486      2.02892      4.21967         0.178285      0.168179      0.510816
O	      6.33611      3.98172      4.25736         0.007926     -0.194914     -0.134392
O	      6.27509      2.02090      6.15014         0.072509      0.162217      0.136381
O	      8.55510      4.18637      6.16738        -0.145127      0.413897      0.103526
O	      2.00155      4.32060      4.02696        -0.526331     -0.041467      0.103477
O	      4.04091      6.33677      4.03642        -0.034520      0.624383      0.068523
O	      4.19132      4.12721      6.11993         0.085133     -0.529761     -0.124361
O	      6.34961      6.18710      5.92819        -0.044366     -0.147108     -0.096476
O	      6.23863      4.41406      8.02099        -0.043970      0.003830      0.258143
O	      8.17621      6.34453      8.15993        -0.217634      0.071202     -0.185615
O	      1.91995      6.31815      6.11623        -0.008827     -0.079644     -0.095379
O	      4.16771      8.58255      6.12825        -0.077375     -0.182958      0.016608
O	      6.26646      8.27055      8.42884        -0.001826      0.019107      0.076027
O	      6.31000      6.40333     10.46606         0.124310     -0.263916      0.083693
O	      8.30864      8.35356     10.42693         0.264269     -0.088570      0.326534
