# total energy = -207.01996701 eV
 
CRYSTAL
PRIMVEC
0.017717 6.231315 6.083075 
6.318730 -0.010756 6.111461 
4.215643 4.176438 -0.010573 
PRIMCOORD
36 1
Li	      4.22643      4.14700      0.07211        -0.065852     -0.086442     -0.057296
Li	      4.23136      8.28671      8.03763        -0.032824     -0.037662     -0.041351
Li	      8.38847      4.12504      4.07661         0.042494     -0.039624      0.122239
Li	      6.29191      6.30981      4.14502        -0.053151      0.019017      0.033536
Li	      4.16645      4.21371      4.10574         0.069730      0.021620      0.014798
Li	      8.31146      6.24316      6.16016         0.003577     -0.033063     -0.045952
Li	      6.33489      4.25771      6.10810         0.091996     -0.007455     -0.055377
Li	      2.15432      4.09073      6.05481        -0.088815     -0.112367     -0.000842
Li	      4.25581      6.19525      6.13311         0.033491      0.152813     -0.074950
V	      6.09887      2.17129      4.16950        -0.046616     -0.195034      0.321645
Cr	      2.15924      6.23837      4.04322         0.096932      0.013186      0.071545
Co	      8.47786      2.14730      6.10883         0.280274     -0.744202     -0.065948
Co	      0.02129      2.04881      2.01296         0.129911     -0.051845      0.079184
Co	      4.30199      8.30654      4.12844        -0.256384     -0.046370     -0.598292
Co	      4.23729      4.20246      7.96346        -0.052874     -0.113123     -0.069494
Co	      6.22182      6.27507      8.04867         0.085184      0.148886      0.038528
Ni	      2.10346      6.24717      8.06778         0.063332     -0.092863     -0.011837
Ni	      2.18929      4.12505      2.00811         0.014890      0.068336     -0.190260
O	      1.96668      2.05773      2.03439        -0.164323      0.127603     -0.453536
O	      4.24678      4.31888      2.03110         0.038192      0.126626      0.081374
O	      4.37169      2.04388      4.10051         0.059450      0.011559     -0.064986
O	      6.32092      3.92473      4.04529        -0.000109      0.118862      0.078719
O	      6.34197      2.02961      5.99045        -0.000148      0.052118     -0.136958
O	      8.43432      3.98208      6.11079        -0.050913     -0.339898     -0.030070
O	      2.06932      4.23492      4.04308        -0.367705      0.212193      0.326824
O	      4.18191      6.28259      3.91546        -0.241337     -0.041083      0.018697
O	      4.21384      4.13756      6.19569        -0.028561      0.028129      0.096746
O	      6.32618      6.23710      6.23999        -0.013840     -0.061054      0.137957
O	      6.32927      4.11238      8.22818        -0.038921     -0.060338      0.547813
O	      8.58836      6.22488      8.14377         0.014276      0.164835      0.103015
O	      2.13528      6.40897      6.03109         0.047822      0.620054     -0.075385
O	      4.22235      8.35811      5.95717        -0.088092      0.075186     -0.169116
O	      4.22223      6.17343      8.15555         0.103190     -0.025540     -0.005669
O	      6.37362      8.28644      8.26382         0.092841     -0.051368      0.005646
O	      6.43516      6.34147      9.98615        -0.001671      0.061943     -0.096045
O	      8.43818      8.23843     10.08332         0.324557      0.116364      0.165098
