# total energy = -209.19969504 eV
 
CRYSTAL
PRIMVEC
0.037164 6.303643 6.055596 
6.253455 0.085849 6.006886 
4.220944 4.222321 0.005180 
PRIMCOORD
36 1
Li	      8.34621      2.29125      6.02797        -0.022010      0.026959      0.064862
Li	      8.35078      4.21895      4.05365        -0.122246      0.125973     -0.006253
Li	      6.34871      2.23710      7.94715        -0.030397     -0.037282     -0.063483
Li	      6.28731      6.33186      4.12856         0.095752     -0.136427     -0.001061
Li	      8.33679      6.31418      5.98047         0.011567      0.080109     -0.081369
Li	      6.35282      4.33280      6.00561        -0.168904     -0.001119     -0.096435
Li	      4.19473      8.37781      4.09215         0.067821      0.035687      0.052367
Li	      6.28382      8.32517      6.04842         0.025358     -0.027247      0.056348
Li	      4.35810      6.36740      6.06784         0.029664     -0.097043      0.036047
V	      2.20480      6.31624      4.19200         1.096080     -0.074538     -0.082303
Cr	      8.32845      4.25130      8.01954         0.231905     -0.051943     -0.108219
Co	     10.32038      4.32896      6.00154         0.149342      0.244199     -0.360842
Co	      2.11192      0.09342      1.97018         0.016227      0.465517     -0.240459
Co	      6.32233      8.49543     10.03765        -0.473956      0.251266      0.372996
Co	      4.23382      4.23872      4.06463         0.274781     -0.276752     -0.018832
Co	      4.25505      4.24499      7.87793        -0.005751     -0.012976     -0.738994
Co	      6.26593      6.32193      7.98896        -0.141763      0.032015     -0.027926
Cu	      4.24086      8.42723      8.01618         0.124762      0.100577      0.066746
O	      2.21081      2.12945      2.07702        -0.257279      0.395608     -0.039117
O	      4.11360      4.39686      2.05408         0.196640     -0.128539      0.505023
O	      4.36309      2.32687      3.93874         0.100179     -0.081138     -0.094591
O	      6.16601      4.14792      3.94061        -0.130409     -0.255468      1.037873
O	      6.27469      1.97879      5.88800        -0.197958     -0.182722     -0.123508
O	      8.34688      4.27834      6.04220         0.516948      0.018548      0.178451
O	      2.25906      4.31172      4.03269        -0.432611      0.815535      0.129398
O	      4.10177      6.19053      4.07574        -1.279029      0.646904      0.096727
O	      4.23056      4.18662      6.05842        -0.015734     -0.043700     -0.023013
O	      6.29200      6.37445      6.15075         0.058153     -0.011377      0.120907
O	      6.30511      4.23124      8.11235         0.102779      0.023256     -0.011590
O	      8.25488      6.32767      8.16133        -0.102446     -0.108540      0.289273
O	      2.13902      6.36521      5.99247        -0.468292      0.001795     -1.262534
O	      4.25654      8.67678      6.06820        -0.157723     -0.048857      0.092182
O	      4.29604      6.20489      8.05576        -0.040795      0.168474      0.168625
O	      6.34349      8.61176      8.10214         0.030451     -0.625331      0.064209
O	      6.35904      6.51882      9.98763         0.613565     -0.254717     -0.311587
O	      8.30043      8.35569      9.91843         0.305329     -0.976708      0.360081
