# total energy = -209.86549039 eV
 
CRYSTAL
PRIMVEC
0.010626 6.097107 6.275102 
6.232058 -0.000620 6.284988 
4.146378 4.062677 0.008257 
PRIMCOORD
36 1
Li	      6.22812      6.06134     12.50618        -0.135660     -0.071841     -0.187200
Li	      4.17662      0.06992      4.19405         0.194616     -0.161890      0.100611
Li	      6.13327      1.96383      4.17491         0.042772     -0.068968     -0.024495
Li	      4.15580      6.07582      2.18993        -0.133691      0.042264      0.058856
Li	      6.25065      6.05566      4.31234        -0.083859      0.071653      0.038426
Li	      4.08632      2.01460      6.16105        -0.041718     -0.081754      0.139364
Li	      6.19537      4.17248      6.23788         0.028119      0.034599     -0.056800
Li	      2.08884      6.07707      4.21492        -0.093242      0.000046     -0.172243
Li	      6.22797      6.06407      8.36125         0.171538     -0.011367      0.116051
V	      8.08321      2.06985      6.19373         0.032671      0.512202     -0.372515
Cr	      4.19593      8.10991      8.40477         0.024585     -0.097982      0.017372
Co	      8.28083      4.21082      8.36742         0.044491     -1.194192     -0.057393
Co	      4.17551      4.03558      4.20824        -0.203848      0.185126      0.058798
Co	      6.29107      4.12722     10.42340        -0.320265     -0.593438      0.298255
Co	      2.10101      4.06409      6.27075         0.006977      0.033583     -0.095484
Co	      4.18853      6.12670      6.28113         0.086409      0.186175      0.047354
Co	      8.33824      8.06144      8.38373         0.091735     -0.406427      0.086898
Ni	      6.21838      4.07751      2.16420         0.046289      0.035144      0.035643
O	      2.17067      2.08724      1.88683        -0.026018      0.198934      0.236738
O	      4.11785      3.99960      2.16004        -0.156847      0.202988      0.092520
O	      4.14996      2.00882      4.09020        -0.027387      0.080975     -0.011514
O	      6.02126      4.07032      4.17993        -0.084000     -0.060885     -0.064067
O	      6.38617      1.97130      6.27167        -0.296535      0.008021     -0.006547
O	      8.30186      3.87655      6.30942        -0.018482     -0.121280     -0.112765
O	      2.22573      4.08381      4.25642         0.189365     -0.013451      0.534843
O	      4.17522      6.23758      4.36693         0.080738     -0.070095     -0.190961
O	      4.03385      4.20311      6.25944        -0.080410     -0.128134     -0.113238
O	      6.12028      6.23171      6.29680        -0.092512      0.039471     -0.006890
O	      6.27278      4.00049      8.44335         0.099215      0.323972      0.559123
O	      8.34263      6.01262      8.33655         0.040186      1.048150     -0.186535
O	      2.20059      6.20038      6.33598         0.121115     -0.155048      0.060647
O	      4.25292      8.05258      6.33993         0.347403      0.090558     -0.348652
O	      4.14350      6.08486      8.25430        -0.036207     -0.055200      0.036455
O	      6.23257      8.13946      8.23762         0.027967      0.027779     -0.193834
O	      6.26463      5.92031     10.50061         0.010861      0.162575     -0.191668
O	      8.32323      8.11723     10.66010         0.143629      0.007739     -0.125153
