# total energy = -212.45214156 eV
 
CRYSTAL
PRIMVEC
0.066018 6.201226 6.146883 
6.165427 0.067810 6.145132 
4.128441 4.151165 0.026546 
PRIMCOORD
36 1
Li	      2.17017      8.22424      6.07070        -0.200496      0.037769     -0.091379
Li	      4.17856      6.22247     10.20595         0.238148     -0.080324      0.156812
Li	      6.24996      8.31015     10.23419         0.116745     -0.248143      0.205122
Li	      8.21739      4.26534      8.28593        -0.059316      0.118982     -0.105424
Li	      4.08968      4.11379      4.15223        -0.010237      0.179830      0.002478
Li	      4.11037      2.15502      6.08009         0.089046     -0.127389      0.094019
Li	      4.17017      8.30657      4.15915         0.010345      0.234357     -0.094758
Li	      2.10645      4.15370      6.11298         0.073458      0.084316     -0.080397
Li	      6.26437      6.27716      8.25931         0.083946     -0.130250      0.234745
V	      6.29765      4.15975      6.08196         0.765709     -0.333558      0.070678
Cr	      4.14871      6.22978      2.08919        -0.185930      0.114569     -0.188753
Co	     10.30610     10.32284     12.25731        -0.320949      0.524127      0.360147
Co	      6.27634     10.35061      8.23101        -0.203332      0.096095     -0.100406
Co	      4.25583      8.32017      8.22068         0.081855     -0.055762     -0.072575
Co	      2.08515      2.14818      4.10353        -0.540751      0.280287      0.063707
Co	      8.23002      6.26011     10.26945        -0.687845     -0.141434     -0.070619
Co	      4.17260      6.23209      6.16277        -0.275688     -0.014990      0.015707
Co	      8.27553      8.32078      8.22887         0.328614     -0.370938      0.236243
O	      2.04289      1.97797      2.15457         0.351850     -0.170122      0.019853
O	      4.25454      4.23268      1.93522         0.365287     -0.883977      0.829120
O	      3.93571      2.11508      4.05541         0.461565      0.062977     -1.206920
O	      6.17641      4.18400      4.10455         0.006096     -0.065280     -0.131706
O	      6.15198      2.20322      6.22333        -0.057989      0.376883      0.119290
O	      8.12778      4.20145      6.20722        -0.912876      0.079599     -0.022287
O	      2.10263      4.28319      4.08530         0.012820      0.048927      0.097265
O	      4.26638      6.24748      4.17022        -0.014299      0.021024      0.080761
O	      4.29137      4.29576      6.23835        -0.252369      0.022012      0.054120
O	      6.12076      6.17943      6.07773         0.052815      0.105804     -0.031394
O	      6.11008      4.14956      8.10813        -0.225395     -0.104847      0.057131
O	      8.32475      6.37476      8.27221         0.100794      0.248106     -0.122583
O	      2.21418      6.22932      6.24196         0.611303     -0.005157      0.124981
O	      4.16323      8.21046      6.25037         0.094520     -0.532543      1.168094
O	      4.07754      6.12330      8.09509        -0.019073      0.568412      0.017048
O	      6.31680      8.43428      8.21221        -0.504109      0.129969      0.003079
O	      6.18474      6.27009     10.40350         0.587827      0.011575     -1.480887
O	      8.27340      8.15806     10.14734         0.037910     -0.080906     -0.210310
