# total energy = -103.81135379 eV
 
CRYSTAL
PRIMVEC
2.076478 4.240814 2.087597 
4.107238 -2.105943 -2.070809 
-0.007243 4.257373 -4.200670 
PRIMCOORD
16 1
Li	      2.13108      4.26650      1.99230        -0.000903      0.019109     -0.025884
Li	      2.05061      2.10280     -0.02147        -0.004823      0.006730     -0.020716
Li	      2.03517      0.02375     -2.04658        -0.008091      0.011981      0.005729
Li	      4.09645     -0.02059     -4.09358         0.005192     -0.014567      0.032050
Ti	      2.05598      4.19956     -1.97943        -0.002481     -0.114701      0.234235
Ti	      4.12211      4.34996     -4.32476         0.009139      0.168959     -0.294810
Ni	      4.12355      2.15450     -2.05217         0.016824     -0.013489      0.061848
Ni	      4.10834      6.39138     -2.10081        -0.018479     -0.023706     -0.042672
O	      2.06369      2.27140     -2.13135        -0.105995      0.164616      0.117962
O	      4.03318      4.28867     -2.14689        -0.085632     -0.011076     -0.020958
O	      2.14651      4.20216     -4.12489         0.095069      0.120132      0.026282
O	      4.15632      1.98700      0.02698        -0.003327     -0.204573     -0.000480
O	      4.08070      0.05533     -1.98591         0.008386     -0.088453      0.289522
O	      2.07093      4.24311     -0.10126         0.113036     -0.005108     -0.259072
O	      4.16887      2.24858     -4.14724         0.142051      0.021660     -0.101497
O	      1.98902      6.24178     -2.11716        -0.159965     -0.037514     -0.001540
