# total energy = -191.46888099 eV
 
CRYSTAL
PRIMVEC
0.000567 6.164324 6.267100 
6.236771 -0.013663 6.281021 
4.152951 4.114026 -0.004094 
PRIMCOORD
36 1
Li	      2.19947      6.13297      8.39411        -0.001915     -0.102486     -0.055710
Li	      4.14757      8.13486      8.28382         0.143709     -0.020067     -0.090359
Li	      4.16290      6.10567     10.32170         0.074552     -0.031108      0.044900
Li	      2.02324      2.06000      4.05314         0.173381      0.019037      0.038635
Li	     10.36809      8.18747     10.45228        -0.031680      0.144934      0.062949
Li	      2.17898      6.13660      4.20381        -0.227234      0.032703      0.087974
Li	      2.04395      4.14630      6.26472        -0.058644      0.028340     -0.029114
Li	      4.11193      6.22289      6.31995        -0.017317      0.069158      0.197603
Li	      6.11089      6.18887      8.48071        -0.070543      0.035740      0.146598
V	      8.08158      6.19484      6.28666        -0.120520      0.064676     -0.247175
Cr	      0.16387      6.09580      6.20260         0.040630     -0.021856     -0.595202
Cu	      4.14196      4.13672      4.16582         0.029525     -0.464464      0.053358
Ni	      2.14576      8.20748      6.22572         0.125107     -0.052330     -0.413169
Ni	      6.25840      2.07196      4.19083         0.129865     -0.123261     -0.313279
Ni	      0.05651      2.04175      2.10232         0.284624     -0.108380      0.183062
Ni	      2.05753      4.10328      2.13185        -0.020651      0.134980     -0.007612
Ni	      6.19784      4.08996      6.29716         0.041486      0.077904     -0.083645
Ni	      8.31231      8.25294      8.47375        -0.147496      0.057867      0.231685
O	      4.17071      6.03855      8.36436        -0.021264      0.423232     -0.044779
O	      2.06196      2.11736      1.92680        -0.840405     -0.240462      0.689237
O	      4.05559      4.17059      1.77439         0.136603      0.184644      0.499206
O	      4.16952      2.20335      4.40841        -0.186611      0.079408     -0.047531
O	      6.04473      4.06866      4.26414        -0.019116      0.268965     -0.073972
O	      6.26050      2.01975      6.23418        -0.234856     -0.000889      0.913234
O	      8.31820      4.28386      6.26701         0.008643      0.234125     -0.048315
O	      2.26735      4.11278      4.09896        -0.022369     -0.010708      0.158841
O	      4.18078      5.97936      4.10059         0.050017      0.355332     -0.928644
O	      4.17607      3.90648      6.46424        -0.109092     -0.133509     -0.204940
O	      6.34419      6.16040      6.29720         0.014479      0.042700      0.013298
O	      6.20098      4.05591      8.36802         0.256501     -0.380030      0.023541
O	      8.36232      6.18273      8.20310         0.436278     -0.058761      0.240682
O	      1.96355      6.15929      6.24652         0.209596     -0.145458      0.023470
O	      4.15448      8.31211      6.21038         0.211547     -0.074058      0.057358
O	      6.36598      8.19328      8.52178        -0.327714     -0.019896     -0.320591
O	      6.16398      6.25492     10.66270         0.007851     -0.241571     -0.067878
O	      8.29969      8.21959     10.50707         0.083037     -0.024451     -0.093714
