# total energy = -191.86719454 eV
 
CRYSTAL
PRIMVEC
-0.011177 6.196756 6.166629 
6.190016 -0.002181 6.157451 
4.128089 4.126484 -0.002746 
PRIMCOORD
36 1
Li	      4.11239      4.10684      0.05509        -0.012145      0.053177     -0.000550
Li	      2.11301      2.02900      0.11451        -0.071027      0.015608      0.000395
Li	      2.09768      6.16966      8.08457         0.017687     -0.015655     -0.002780
Li	      6.15968      2.04947      8.13869        -0.026207     -0.014885     -0.038410
Li	      8.25410      6.11655      6.20212        -0.000458     -0.039185      0.067513
Li	      6.18780      4.14656      6.21261         0.009245     -0.029327     -0.042591
Li	      2.13286      6.12333      4.18588        -0.044853      0.004015     -0.054949
Li	      2.08551      4.21855      6.20001         0.017260     -0.007644     -0.018490
Li	      4.07288      4.11131      8.09041        -0.010118     -0.042725      0.003914
V	      6.32867      2.12482      4.18599         0.042295     -0.155439      0.247201
Cr	      6.19090      6.18868      8.15441         0.129751      0.017394      0.291239
Cu	      8.24527      4.18556      4.20487        -0.021225     -0.273328      0.162797
Cu	      4.14437      8.23732      4.15051         0.147873      0.072626     -0.087125
Ni	      4.09107      2.08234      2.00190         0.030913      0.047461     -0.079498
Ni	      8.24682      4.13460      8.21199         0.006908      0.143002     -0.037974
Ni	      6.18151      6.20940      4.12412         0.111602     -0.058266      0.088352
Ni	      4.07178      4.16680      4.12160         0.469891     -0.226546      0.038513
Ni	      4.09266      6.17668      6.14034         0.167126     -0.148256      0.324894
O	      2.22068      6.19916      6.15946        -0.192266      0.013898     -0.046173
O	      2.05857      2.23634      2.11082        -0.055579     -0.225921     -0.090945
O	      3.93901      4.12574      2.11331         0.273183      0.026915     -0.104041
O	      4.18429      2.01988      4.07842         0.025608      0.358112      0.021990
O	      6.20347      4.00299      4.03507        -0.282611      0.146583     -0.001436
O	      6.17627      2.04185      5.93034        -0.008028      0.017873     -0.128555
O	      8.24197      4.10971      6.35275        -0.066922     -0.042591     -0.580064
O	      2.09855      4.10858      3.96494        -0.661307      0.009925      0.417514
O	      4.16499      6.16985      4.26446        -0.133561      0.122091     -0.346961
O	      4.11931      4.28439      6.08922         0.057570     -0.037428      0.098144
O	      6.05320      6.18403      6.18903         0.062014     -0.035732     -0.162343
O	      6.31891      4.17594      8.34772        -0.262187     -0.093833      0.159711
O	      8.16968      6.06235      8.20694         0.046007      0.162559      0.032096
O	      4.14062      8.09491      6.06950        -0.024306      0.134958     -0.203711
O	      4.17759      6.20403      8.02558        -0.031511      0.038472      0.180452
O	      6.14138      8.17445      8.35274         0.027249      0.061539     -0.037995
O	      6.09215      6.32040     10.20605         0.073683      0.117821     -0.031911
O	      8.11148      8.35890     10.21595         0.188447     -0.117270     -0.038225
