# total energy = -192.70257121 eV
 
CRYSTAL
PRIMVEC
-0.027730 6.269603 6.147757 
6.217089 -0.013475 6.133809 
4.162032 4.187626 -0.026254 
PRIMCOORD
36 1
Li	      8.23438      8.30990     12.21632        -0.006739     -0.030085     -0.014534
Li	      4.17121      8.26327      8.17954        -0.006403     -0.025096      0.011333
Li	      8.18387      4.25210      8.17515        -0.039459      0.008516      0.034982
Li	      6.15268      4.18742      6.26163        -0.095428      0.005699     -0.042049
Li	     10.21196      8.35335     10.07811         0.008324     -0.035959      0.038993
Li	      8.31894      6.40044     10.16330         0.009716      0.090249      0.009070
Li	      4.13413      6.20548      6.24367         0.011344     -0.048298     -0.071781
Li	      8.32767      8.37772      8.25109         0.045526     -0.030234     -0.063285
Li	      6.21453      6.16321      8.12107        -0.012324     -0.033473      0.001049
V	      4.08838     10.28809      6.08449         0.008587     -0.016343     -0.241939
Cr	      2.04213      2.12720      4.10533         0.075170      0.137948      0.006316
Cu	      2.08420      6.25497      8.17428         0.187945      0.061468     -0.117516
Cu	      6.18882      2.16354      8.16206        -0.162132      0.097721      0.021180
Cu	      4.13607      4.18860      4.06711        -0.134210      0.084083      0.113542
Ni	      4.15505      6.17800     10.17214        -0.050577      0.268425      0.208961
Ni	      6.28465      8.36385     10.18341        -0.250181     -0.165035      0.314370
Ni	      4.14653      2.11653      6.16997        -0.097617     -0.087409      0.040527
Ni	      6.26420      8.35789      6.17648        -0.136417     -0.049743     -0.128564
O	      4.04781      6.30080      8.20324        -0.075314     -0.021144     -0.030941
O	      6.16324      8.46161      8.19064         0.009322      0.029164     -0.027297
O	      2.02574      2.04002      2.21308        -0.113316     -0.160396     -0.398394
O	      4.21010      4.25905      1.91196         0.215328      0.133447      0.076778
O	      4.09219      2.09915      4.19770         0.285609     -0.140774     -0.328651
O	      6.17778      4.30128      4.02987         0.146794     -0.464729      0.000136
O	      6.14266      1.99135      6.14055         0.333071     -0.006574     -0.281013
O	      8.51470      4.18371      6.11369        -0.055428     -0.082287     -0.047413
O	      2.15609      3.99131      4.09663        -0.064852      0.316744      0.010836
O	      4.23496      6.20121      4.02612        -0.109507      0.107974      0.190728
O	      4.09161      4.15653      6.03428         0.108553      0.104385     -0.042068
O	      6.28164      6.26131      5.98110        -0.154826     -0.024954      0.376260
O	      6.23423      4.10732      8.17922         0.013974     -0.059434     -0.024328
O	      8.36732      6.28820      8.04731         0.073866     -0.021952      0.264399
O	      1.89621      6.26911      6.19400        -0.079624      0.050304      0.050846
O	      4.15312      8.52049      6.12507         0.011175      0.041592      0.031922
O	      6.23841      6.29248     10.38891        -0.047288     -0.002746      0.128370
O	      8.22780      8.39909     10.26113         0.147339     -0.031054     -0.070825
