# total energy = -199.71975418 eV
 
CRYSTAL
PRIMVEC
0.024350 6.144844 6.205933 
6.325472 0.001906 6.227395 
4.202308 4.095484 0.016633 
PRIMCOORD
36 1
Li	      0.07300      6.13576      6.23993        -0.029054      0.007521     -0.112071
Li	      4.23006      2.08016      2.13285        -0.047732      0.026741     -0.036616
Li	      4.22891      6.20567     10.27165        -0.009556     -0.107064     -0.064967
Li	      2.14110      2.10722      4.21304        -0.074993     -0.039698     -0.001875
Li	      4.19666      4.04804      4.15169         0.078197      0.024268      0.028844
Li	      6.28289      4.15254      6.22826         0.001579     -0.064811     -0.070032
Li	      2.09166      6.09801      4.15221        -0.127607      0.094708     -0.027601
Li	      4.22103      4.08951      8.25420         0.016603     -0.007930      0.021579
Li	      6.34722      6.14381      8.25428         0.017963     -0.073838      0.138822
V	      8.39699      2.13123      6.12755        -0.165334      0.192470      0.022208
Cr	      4.24191      6.08321      6.26185         0.049963     -0.069080     -0.104108
Fe	      4.17525      6.14194      2.23552         0.133132      0.085612     -0.125925
Co	      6.19791      8.13172     10.27276        -0.289598      0.206318      0.184071
Cu	      8.36137      6.16253      6.21947         0.074487     -0.084624     -0.037062
Ni	      6.30205      4.07904      2.11708         0.020502      0.001725      0.377586
Ni	      2.14390      4.09078      2.16358         0.012049      0.013815     -0.073836
Ni	      6.38025      4.17352     10.33604        -0.129085      0.338880     -0.058142
Ni	      2.10729      4.09108      6.18192        -0.037481      0.042996      0.066694
O	      2.05646      1.99320      1.97604         0.140377      0.045399      0.009126
O	      4.21830      4.19545      2.12744         0.072907     -0.333902     -0.031387
O	      4.23440      2.00254      4.30584         0.621851      0.044260     -0.009204
O	      6.34261      3.78964      4.13786        -0.089948      0.487881     -0.231929
O	      6.57120      2.00762      6.22533         0.018688      0.008146     -0.137697
O	      8.51385      3.90245      6.31313         0.033332     -0.029207      0.015050
O	      2.02565      4.15641      4.17872         0.271474     -0.113053      0.023053
O	      4.22331      6.20337      4.21672        -0.024557     -0.124437      0.254504
O	      4.17052      4.22766      6.17453        -0.041052      0.001214      0.101312
O	      6.20999      6.17289      6.23216        -0.012243     -0.001097      0.014277
O	      6.40687      4.00359      8.32904        -0.007233      0.151603     -0.158828
O	      8.54481      6.12217      8.14806        -0.198636      0.037031     -0.079258
O	      2.22317      6.22481      6.24310         0.045693     -0.014396      0.010480
O	      4.12120      8.09924      6.19198         0.015365     -0.019742      0.107483
O	      4.17120      6.17177      8.10612        -0.049595     -0.040223     -0.068231
O	      6.31103      8.25685      8.27521        -0.033716      0.013961      0.304203
O	      6.33329      6.33748     10.31102        -0.008031     -0.653327     -0.043394
O	      8.51208      8.20215     10.54078        -0.248711     -0.048120     -0.207125
