# total energy = -199.35306609 eV
 
CRYSTAL
PRIMVEC
0.002934 6.226833 6.208376 
6.145210 0.002115 6.208981 
4.089758 4.144814 0.008888 
PRIMCOORD
36 1
Li	      4.06695      4.12498      0.03009         0.041032      0.003956      0.045326
Li	      4.07706      8.24254      8.20284        -0.029383      0.030687      0.051841
Li	      6.11629      8.32188     10.28959         0.014540      0.066672     -0.014420
Li	      0.07259      2.10423      2.04211        -0.015239     -0.037194     -0.008695
Li	      2.01092      4.07114      2.07033         0.032606     -0.130647      0.032706
Li	      2.01438      2.10160      3.97455         0.002779      0.004064     -0.102814
Li	      6.15661      4.16418      6.28153        -0.024168     -0.077216      0.016105
Li	      6.09691      8.28881      6.27063         0.036563      0.055975      0.007124
Li	      4.08807      4.20145      8.29810        -0.005067     -0.021250      0.006454
V	      4.17845      4.05761      4.06144         0.139167     -0.014906     -0.124288
Cr	      8.24095      6.19780      6.27755         0.141931      0.159182      0.056623
Fe	      8.15443      6.22469     10.36376         0.254544      0.006549      0.043721
Co	      4.09862      0.02829      4.12832         0.030251      0.052399     -0.094336
Cu	      0.05375      4.16700      4.13921         0.109512     -0.163466     -0.050216
Cu	      6.16685      6.30490      8.30727        -0.161706      0.258732      0.050775
Ni	      8.16093      2.10921      6.24864        -0.132008      0.011268      0.135366
Ni	      2.04249      6.19368      8.19432         0.144495      0.013522      0.046131
Ni	      4.15008      6.21268      6.24505        -0.063605     -0.122845      0.057118
O	      6.13589      8.35086      8.26417        -0.002980     -0.766592      0.020773
O	      2.03146      1.92562      2.00418        -0.008760      0.584044      0.100987
O	      4.06045      4.04292      2.26942        -0.152487      0.006898      0.045819
O	      4.01636      2.16261      4.27879         0.011572      0.006151      0.028209
O	      5.99530      4.11260      4.08457         0.020463      0.008054      0.199438
O	      5.99514      2.10405      6.26647        -0.114515     -0.050523     -0.080829
O	      8.17114      4.25680      6.09568        -0.009685      0.176362      0.063418
O	      2.04622      4.19692      4.12881        -0.183611     -0.019108      0.042930
O	      4.02770      5.94154      4.20357         0.020925     -0.009938     -0.071372
O	      4.10086      4.03716      6.05962        -0.028133     -0.110185      0.074221
O	      6.24033      6.19991      6.36248         0.044102     -0.032303      0.067242
O	      6.17532      4.29626      8.47693        -0.047849      0.078915     -0.031662
O	      8.17850      6.27296      8.29389         0.264303      0.009863     -0.112767
O	      2.06928      6.25259      6.16324        -0.042826     -0.062751     -0.264804
O	      4.08467      8.23498      6.01826         0.100856      0.090293      0.032954
O	      4.14157      6.25053      8.37723        -0.100163     -0.065359     -0.115491
O	      6.21155      6.41622     10.27496        -0.218075      0.092685     -0.046919
O	      8.37429      8.33718     10.40250        -0.069380     -0.031989     -0.106669
