# total energy = -199.66775048 eV
 
CRYSTAL
PRIMVEC
0.029855 6.212691 6.184156 
6.213284 0.039125 6.175475 
4.171132 4.165785 -0.003641 
PRIMCOORD
36 1
Li	      6.37854     10.34153      8.32863         0.023561     -0.027396     -0.057233
Li	      4.23224      8.21300      8.30341        -0.021019     -0.019199     -0.019179
Li	      6.18027      2.17359      4.11192         0.000621     -0.024720      0.029633
Li	      6.27851      6.09851      4.16779        -0.053767      0.092379      0.035195
Li	      4.33252      4.14936      4.17662        -0.011315      0.085818      0.015441
Li	      6.18355      4.21436      6.03436         0.024388      0.015237      0.070478
Li	      8.30726      6.33717     10.34013         0.023375     -0.055962     -0.020744
Li	      4.19232      6.21753      6.13728         0.034295     -0.015002     -0.116850
Li	      6.15710      6.28582      8.26501         0.040667      0.021474     -0.015704
V	      2.09292      4.14573      2.16478         0.042244      0.008797     -0.101852
Cr	      6.28397      8.30139      6.32542         0.035345      0.029001      0.080154
Fe	      4.17218      6.23401      2.13749         0.027755     -0.053689     -0.108387
Co	      4.13981      2.11332      6.13265         0.040475      0.082145      0.010752
Cu	      0.04674      6.19596      6.15229         0.033998      0.018780      0.086122
Cu	      8.33070      8.29628     12.26798        -0.007021     -0.216158      0.218389
Cu	      4.07326      0.07485      4.06056         0.266080     -0.010021     -0.005988
Ni	     10.36664      8.35000     10.31283         0.223065     -0.083636      0.049851
Ni	      4.14818      4.23163      8.26531         0.106358     -0.176396     -0.055451
O	      4.19225      6.20133      8.27837        -0.020054      0.182814     -0.018143
O	      6.11929      6.20360     10.37427        -0.193199      0.180881     -0.146503
O	      2.03613      2.27928      1.87778         0.091603     -0.064097      0.072709
O	      3.96758      4.19278      2.04748         0.194007     -0.059648     -0.021087
O	      4.15435      2.05059      4.25481         0.019336     -0.101553     -0.004292
O	      6.33207      4.18705      4.09468        -0.059810     -0.059238     -0.012623
O	      6.11889      2.01305      6.28088         0.061113      0.423644     -0.044509
O	      8.36581      4.34469      6.26834        -0.369776      0.147263      0.096607
O	      2.07735      4.17511      3.94624         0.043153      0.025579      0.069272
O	      4.18444      6.27822      4.01708         0.022171     -0.150678      0.139203
O	      4.09201      4.05444      6.22473         0.081744      0.075602     -0.110937
O	      6.38791      6.44524      6.11743        -0.131016      0.037140      0.023320
O	      6.37044      4.16248      8.19803        -0.247119      0.075925     -0.043186
O	      8.33037      6.16202      8.13296        -0.091422      0.102302     -0.018013
O	      2.02517      6.04554      6.13678         0.339825     -0.271718     -0.094012
O	      4.28203      8.35991      6.18664        -0.109318     -0.408576      0.082621
O	      6.29342      8.30870      8.12477        -0.157125     -0.000053      0.006748
O	      8.34608      8.37429     10.34440        -0.303220      0.192956     -0.071804
