# total energy = -201.31127712 eV
 
CRYSTAL
PRIMVEC
-0.022587 6.072570 6.392811 
6.146610 -0.030944 6.401214 
4.087397 4.043373 -0.009925 
PRIMCOORD
36 1
Li	      8.18606      8.00664     12.67364         0.004201      0.023418     -0.011467
Li	      6.11076     10.03210      8.45462         0.025399      0.027863     -0.081903
Li	      8.13517      4.03713      4.34241        -0.025307     -0.017804     -0.030967
Li	      4.10479      6.09293      2.23369         0.026178      0.007806     -0.016578
Li	      8.15726      4.05965      8.54139        -0.025847     -0.054389     -0.009063
Li	      4.11294      4.07884      4.35353        -0.040514     -0.033240      0.005108
Li	      0.05080      4.00685      4.27829        -0.020380     -0.011039     -0.001122
Li	      2.07462      4.08283      6.28784         0.041897     -0.095490     -0.013196
Li	      4.04656      6.06933      6.32690         0.059586     -0.083273      0.029270
V	      3.91327      2.02825      1.98013        -0.063532     -0.249494      0.013064
Cr	      6.13267      6.01988      8.61160        -0.040257     -0.061460      0.033467
Fe	      2.15777      5.99893      4.32350        -0.114150      0.195490     -0.238804
Co	      6.13978      4.03617      6.43128         0.013221      0.043949      0.150354
Cu	     -0.00652      6.02742      6.33171         0.101927     -0.058899     -0.117910
Cu	      6.08371      2.05542      4.25277         0.082398      0.117259      0.056173
Cu	      1.99758      2.05171      4.24894         0.034718      0.043454     -0.085724
Cu	      8.17270      6.06449      6.42147        -0.061029      0.021205      0.144794
Ni	      8.16849      8.08880      8.56438         0.031300      0.084657      0.030107
O	      2.05504      6.06343      6.16971        -0.204294     -0.015940      0.546968
O	      4.13073      8.03436      6.56664         0.004757     -0.020681     -0.102580
O	      8.09413      7.96512     10.65085         0.113197      0.148074      0.082940
O	      2.15113      1.95433      1.99526         0.108838      0.044330      0.064390
O	      4.12867      3.87667      1.90135         0.006035      0.155455      0.079711
O	      4.01906      2.06914      3.94028        -0.104077      0.063162      0.057021
O	      6.12278      4.07614      4.48980        -0.041823      0.205121     -0.018721
O	      5.95560      2.09046      6.24917        -0.024266      0.052817      0.048966
O	      8.09066      4.19988      6.40165         0.221067     -0.034628     -0.041656
O	      2.05397      4.11998      4.27658         0.029091     -0.465263     -0.035249
O	      4.14415      6.08256      4.27153         0.078302     -0.056901      0.031465
O	      4.18806      3.88343      6.51518         0.016283      0.285692     -0.128085
O	      6.30769      5.98635      6.60157        -0.193952     -0.075065     -0.110267
O	      6.11304      4.04676      8.39450         0.129869     -0.048386     -0.023638
O	      8.12808      6.04500      8.81716         0.005470     -0.131335     -0.256657
O	      4.13316      6.13765      8.45810         0.013299      0.146747      0.071840
O	      6.06751      8.03672      8.66089        -0.168385      0.088603     -0.146052
O	      6.08080      6.07727     10.68936        -0.019221     -0.241813      0.024002
