# total energy = -200.11403355 eV
 
CRYSTAL
PRIMVEC
0.003191 6.582753 6.223604 
6.046774 0.030197 6.192302 
4.044136 4.380406 0.008804 
PRIMCOORD
36 1
Li	      4.01822      2.22191      2.19022         0.017975      0.013251      0.010958
Li	      5.95966      2.29243      4.22694        -0.062328      0.054468      0.057384
Li	      2.12161      4.39009      2.02297        -0.006956      0.024513     -0.015992
Li	      6.12417      6.48050      4.25214         0.044876     -0.046153      0.133884
Li	      4.02643      4.11812      4.20760        -0.000842     -0.106579      0.072847
Li	      3.96401      2.31585      6.12442         0.119945      0.036390     -0.089311
Li	      5.98284      4.54416      6.09743        -0.064444      0.001977     -0.018110
Li	      4.06906      6.34793      6.23611         0.082239     -0.103218     -0.019835
Li	      4.02193      4.40418      8.13957         0.034258     -0.004188     -0.089697
V	      0.04842      4.29008      4.05858         0.389656     -0.030555     -0.208223
Cr	      6.05478      6.71392      8.23887        -0.023680     -0.170616     -0.013858
Fe	      6.05763      4.38386      2.12626         0.004456     -0.241058      0.081885
Co	      6.05224      0.04399      6.18558        -0.020762      0.198867      0.150740
Cu	      4.00768      0.12882      4.15691         0.105165      0.135330     -0.011119
Cu	     10.02763      6.53118      8.21875         0.146102      0.036046     -0.226910
Cu	      8.07844      6.64246     10.35883        -0.028574     -0.010588      0.046598
Cu	      6.10129      8.72006      6.21254        -0.093812      0.079682     -0.184043
Cu	      8.05363      2.26231      6.23525         0.278975      0.206345     -0.004900
O	      8.08821      6.65179      8.41582        -0.133535      0.022335      0.137272
O	      1.96218      6.74809      6.16942        -0.121383      0.030555     -0.085330
O	      8.28452      9.01536     10.48093        -0.282738      0.198748      0.234016
O	      1.89189      2.07226      1.98592         0.033483      0.066184     -0.124991
O	      4.10271      4.25472      1.91734        -0.054862     -0.121411     -0.156059
O	      4.03102      2.07278      4.15996        -0.056606     -0.106804     -0.140912
O	      6.07042      4.35080      4.06337        -0.360809     -0.034620     -0.015806
O	      6.05604      1.95904      6.22948        -0.776217     -0.297663      0.169622
O	      8.18054      4.28859      6.17318         0.353016     -0.279976     -0.073778
O	      1.89313      4.32357      4.24054        -0.058455      0.075880      0.066495
O	      3.98323      6.86725      4.12238        -0.004535      0.057240      0.014898
O	      3.91712      4.38675      6.15662         0.329370     -0.016461     -0.004910
O	      6.00732      6.51610      6.35148         0.031844     -0.027674     -0.171457
O	      6.08604      4.66206      8.48340        -0.014239      0.156128      0.203060
O	      4.15919      9.01747      6.05712         0.110137     -0.048528      0.023100
O	      4.03016      6.63904      8.34950         0.061979     -0.014945      0.032871
O	      6.08536      8.73658      8.13576        -0.076687      0.226352      0.106857
O	      6.11019      6.57808     10.38068         0.097987      0.040747      0.112754
