# total energy = -198.93578163 eV
 
CRYSTAL
PRIMVEC
0.019342 6.160213 6.208802 
6.167978 0.017155 6.211024 
4.137112 4.133468 -0.013496 
PRIMCOORD
36 1
Li	     10.23471      4.11294      6.20564        -0.106363      0.150050      0.096060
Li	      8.24373      2.19236      6.12483        -0.065922      0.047819      0.057611
Li	      4.21242      8.22813      8.21452         0.013582     -0.054947      0.151499
Li	      4.12011      0.04292      4.18036        -0.098161      0.093790      0.018539
Li	     10.23217      6.20881      8.31295         0.022244     -0.036400     -0.148423
Li	      2.13245      2.04889      4.17511         0.173190     -0.021511      0.114257
Li	      8.27397      6.15592      6.21450        -0.032599      0.041922     -0.000852
Li	      4.14355      6.20050      6.15735         0.105421     -0.186974      0.152622
Li	      6.25005      6.16236      8.28383        -0.009293      0.030876     -0.196402
V	      2.07150      0.18547      1.93498         0.086144     -0.271591      0.258758
Cr	      6.12896      2.06662      4.16421        -0.415410      0.549029      0.277366
Fe	      6.27727      4.22099      6.24685        -0.175655      0.018479     -0.347852
Co	      6.18286      8.13749      6.20754         0.793268     -0.148539      0.116204
Ni	      8.22267      6.19561     10.32380        -0.178291     -0.051919      0.157060
Ni	      2.12953      4.12264      2.04694         0.089437     -0.070813     -0.174777
Ni	      4.13128      4.14444      4.14245         0.103322     -0.374498      0.238368
Ni	     10.28250      8.25093     10.35371         0.168945     -0.335046      0.396909
Ni	      8.26604      8.19055      8.25297        -0.061979      0.045185     -0.316227
O	      2.08093      1.95148      2.06633         0.006193      0.066473      0.038785
O	      4.29105      4.13546      2.09415         0.095779      0.012441     -0.110997
O	      4.30269      2.06634      4.08190         0.151267     -0.054843     -0.039344
O	      6.16075      4.09458      4.09932         0.098630     -0.185476     -0.268101
O	      6.19774      2.24105      6.02346         0.011020     -0.608662     -0.339588
O	      8.20067      4.14536      6.25223         0.422792     -0.090266     -0.124110
O	      2.06048      4.14967      4.20986        -0.519961     -0.212403      0.370102
O	      3.91217      6.19460      4.15014         0.242942      1.013885     -0.087433
O	      3.98893      4.07400      6.21856        -0.127468      0.048317     -0.130281
O	      6.18144      6.12557      6.17507        -0.276172      1.190424     -0.072937
O	      6.18575      4.12279      8.22353         0.052948     -0.058335      1.213140
O	      8.25808      6.14411      8.37384         0.024126      0.023544      0.025192
O	      2.04944      6.12007      6.34753        -0.087920     -0.349980     -0.278255
O	      4.34006      8.21346      6.14754        -0.534403      0.047643     -0.925389
O	      3.88466      6.11741      8.31472        -0.109372      0.231994     -0.030509
O	      6.22493      8.31803      8.30294        -0.188248     -0.017479     -0.214752
O	      6.30965      6.23955     10.36494        -0.090998     -0.705997     -0.034921
O	      8.17749      8.18803     10.30950         0.416966      0.223808      0.158682
