# total energy = -97.07155921 eV
 
CRYSTAL
PRIMVEC
-0.000383 2.116514 2.115131 
2.114896 -2.115826 -0.001069 
13.322933 11.207913 0.027979 
PRIMCOORD
16 1
Li	      2.43885      0.33115      1.79162         0.018015      0.013908     -0.017808
Li	      2.21207      2.21667     -0.09649        -0.002720     -0.004206      0.003757
Li	      4.30044      2.18656     -2.18439        -0.002730     -0.004726      0.004060
Li	      8.97495      6.86189     -6.85242        -0.007155     -0.005313      0.005065
Ti	      8.84754      4.61016     -4.60754        -0.005099     -0.002565      0.002575
Ti	     13.15276      8.93667     -8.92512         0.110429      0.137841     -0.125126
Ni	      6.41568      4.30309     -2.18718         0.091725      0.079985     -0.081630
Ni	     10.89474      8.78144     -6.65834         0.046021      0.055835     -0.057254
O	     11.03427      8.92204     -8.91489         0.062940      0.061993     -0.060827
O	      8.77888      6.65663     -4.53860        -0.041137     -0.038152      0.038438
O	     11.02466      6.79669     -6.78908        -0.119621     -0.124430      0.123751
O	      6.80680      4.68538     -4.68145         0.072260      0.068047     -0.065994
O	      4.38211      2.27062     -0.15195         0.003314      0.002203     -0.000834
O	      4.55090      4.55351     -2.43615        -0.127317     -0.119255      0.122133
O	     13.01561     10.89847     -8.77839        -0.108105     -0.132426      0.120791
O	      2.15178      0.04035     -0.03459         0.009182      0.011260     -0.011098
