# total energy = -202.76869560 eV
 
CRYSTAL
PRIMVEC
0.053744 6.266224 6.261213 
6.148463 0.053623 6.262974 
4.122285 4.202872 0.011533 
PRIMCOORD
36 1
Li	      6.18880     10.45679      8.34095         0.072981      0.049134     -0.059645
Li	      4.07404      0.06884      4.13898        -0.004510     -0.063578      0.153283
Li	      6.08959      2.12250      4.13991         0.069491      0.005395      0.062744
Li	      8.31130      4.29366      8.29959        -0.130607     -0.153472     -0.090955
Li	      6.21879      6.29445      4.22632         0.070174     -0.015198     -0.082618
Li	      4.12372      4.11476      4.13595        -0.020223     -0.091881      0.050807
Li	      4.09345      2.18786      6.24597         0.074646     -0.141691     -0.065932
Li	      8.28181      6.38783     10.41516        -0.059676      0.082277      0.186680
Li	      6.24417      6.38356      8.33370         0.005720      0.012658     -0.018585
V	      6.27146      4.31245     10.30500        -0.448920      0.283508      0.220015
Cr	      6.18499      4.27370      6.08983         0.418917     -0.016565     -0.380790
Fe	      4.09697      2.05505      2.22397        -0.272823     -0.220915     -0.042057
Co	      8.25926      8.42328     12.51926        -0.195430      0.186214      0.139010
Co	      8.20148      8.44663      8.42024         0.077691      0.035781      0.260567
Cu	     10.23823      4.26219      6.30824         0.058799      0.135619     -0.296909
Cu	      4.15034      6.20328      2.16245         0.339271     -0.017157     -0.210553
Ni	      6.24085      8.30238      6.29378        -0.026137      0.148353     -0.087608
Ni	      4.11424      6.23741      6.24803        -0.216442      0.181329      0.009647
O	      8.35889      6.52121      8.37939        -0.108552      0.221058     -0.024101
O	      2.07059      2.07467      1.90422        -0.088880      0.008912      0.404873
O	      4.09734      4.03991      2.00480         0.026211      0.624329      0.026844
O	      4.09620      2.09583      4.07281         0.038858      0.074631      0.024638
O	      6.13709      4.20678      4.33648        -0.090223      0.025306      0.141693
O	      6.29390      2.36236      6.38203        -0.083901     -0.125952      0.020543
O	      8.19944      4.06781      6.26304        -0.092604      0.541961      0.221702
O	      1.93095      4.19998      4.28623        -0.151339     -0.013582     -0.229184
O	      4.17908      6.48877      4.14704         0.003292     -0.152661      0.110758
O	      4.16987      4.24013      6.29424         0.152307     -0.042640     -0.008645
O	      6.20186      6.15648      6.30009        -0.022600     -0.085390      0.007319
O	      6.18992      4.37886      8.50997        -0.041390     -0.267554     -0.083515
O	      2.01238      6.47429      6.22515        -0.010687     -0.843964      0.078800
O	      4.07430      8.23510      6.19806         0.091357     -0.004064      0.150679
O	      4.10832      6.25298      8.33764         0.011990     -0.254959     -0.142310
O	      6.19140      8.36320      8.27388         0.034694     -0.064623      0.197099
O	      6.18401      6.12943     10.57834         0.087498     -0.050217      0.017471
O	      8.38847      8.43988     10.58426         0.431050      0.009601     -0.661763
