# total energy = -203.52595311 eV
 
CRYSTAL
PRIMVEC
0.034127 6.151029 6.248387 
6.263879 0.015911 6.266301 
4.182995 4.119581 0.003632 
PRIMCOORD
36 1
Li	      6.21635      4.08898      2.21204        -0.048756      0.004433      0.018823
Li	      4.21231      2.09179      2.23041         0.046267      0.012526     -0.012339
Li	      4.10627      0.07667      4.08597         0.055171     -0.030225     -0.079364
Li	      6.23096      2.12318      4.14239         0.041801     -0.017620     -0.078004
Li	      4.23399      6.14026      2.12245        -0.007286     -0.043463     -0.002166
Li	      4.22627      4.10137      4.12459        -0.012085      0.027500     -0.059137
Li	      8.36966      6.17245     10.34897        -0.016449      0.012117     -0.023364
Li	      6.32844      8.18435      6.36681        -0.032451      0.012902      0.106258
Li	      8.34719      8.22735      8.43479        -0.009716      0.021314      0.053691
V	      8.39683      8.19916     12.44510        -0.030725      0.085553     -0.119633
Cr	      0.06790      6.15032      6.22895        -0.011454      0.025347     -0.353263
Fe	      4.15684      6.05029      6.31888         0.094147      0.110307      0.098146
Co	      0.06888      4.08260      4.14208        -0.148842      0.039502      0.089550
Co	      6.24300      6.28531      8.40154        -0.066774     -1.099828      0.200620
Cu	      2.13289      4.11176      2.06176         0.033918      0.070844      0.184426
Cu	      2.09201      2.05811      4.15880        -0.041325     -0.022488     -0.063557
Cu	      4.11547      2.14170      6.22507         0.018590      0.162935     -0.059724
Ni	      6.23434      4.10226      6.21764         0.083745     -0.032853      0.113863
O	      8.20162      6.12450      8.25571        -0.285154      0.103904     -0.127783
O	      6.30069      8.08511      8.46337        -0.083902     -0.202055     -0.248088
O	      2.15933      2.12917      1.78807        -0.046592     -0.119491     -0.073827
O	      4.12028      4.15081      1.93496         0.107260      0.004557      0.331496
O	      3.96591      2.10666      4.28506         0.056091     -0.028603      0.108790
O	      6.26594      4.30858      4.20192         0.008224     -0.122437     -0.038354
O	      6.41399      2.04588      6.12784         0.187642     -0.280182      0.083156
O	      8.42137      4.12180      6.28303         0.097823     -0.068136     -0.105101
O	      2.00134      3.96034      4.04704        -0.025446      0.070482      0.121741
O	      4.34375      6.25364      4.23215        -0.009100      0.000175     -0.055780
O	      4.18996      4.13551      6.28406        -0.075731     -0.142485     -0.045214
O	      6.14063      6.11709      6.46834         0.074146      0.492242      0.748234
O	      6.35795      4.18644      8.46870        -0.113659      0.541500     -0.196622
O	      2.13487      6.19603      6.26900        -0.167043      0.091438     -0.009207
O	      4.20358      8.22311      6.10013        -0.108004      0.008388     -0.075007
O	      4.35534      6.17339      8.32153         0.299602      0.041275      0.062995
O	      6.34823      6.01107     10.44593         0.005368      0.241784     -0.489225
O	      8.56415      8.21362     10.56815         0.130698      0.028843     -0.007033
