# total energy = -203.47839220 eV
 
CRYSTAL
PRIMVEC
0.039163 5.929017 6.549020 
6.180119 -0.002894 6.592874 
4.115755 3.976812 0.002516 
PRIMCOORD
36 1
Li	      8.21784      1.97080      6.59638        -0.053603     -0.047850      0.084040
Li	      4.20872      2.00162      2.38160        -0.105728      0.028972     -0.031457
Li	      6.13049      7.91767     10.76827         0.097011     -0.071114     -0.025562
Li	      2.14648      1.97606      4.34834        -0.156345      0.028738     -0.033999
Li	      4.12966      2.01776      6.46841         0.009455     -0.012185      0.083851
Li	      0.04356      3.95412      4.34928         0.005614     -0.003218     -0.059520
Li	      6.26189      7.93517      6.76300        -0.019491     -0.003628      0.087721
Li	      8.12214      7.92303      8.76453         0.145839     -0.103225      0.008581
Li	      6.26048      6.01944      8.83474         0.076652     -0.100712     -0.026289
V	      4.24142      5.99911      6.69271        -0.121273      0.119749      0.100598
Cr	      4.13140      5.96374      2.21224        -0.251808      0.183319      0.061142
Fe	      6.19758      5.91753     13.08987         0.055786      0.006483      0.042726
Co	      2.08111      3.95041      2.18821        -0.045014      0.140281     -0.057969
Co	      8.22979      6.05593     10.94536        -0.011418      0.004123     -0.097365
Cu	      6.18231      3.93814      2.30145         0.053287      0.293768     -0.009503
Cu	      8.22271      3.96248      4.41197         0.018025     -0.160147     -0.024267
Cu	      4.12219      3.87372      4.41018         0.014788      0.267684      0.010276
Cu	      6.24632      3.92684      6.58805        -0.033281      0.044985      0.140147
O	      4.11188      5.98608      8.46174         0.045672      0.019521     -0.017030
O	      6.19820      8.00949      8.74758        -0.010250     -0.063133      0.067737
O	      8.27748      7.85292     10.88223         0.012118      0.271298      0.038525
O	      1.93498      1.96392      2.22046         0.660782     -0.135790      0.075499
O	      4.04185      3.97410      1.99695        -0.097789     -0.295326      0.067569
O	      4.10224      1.97402      4.43496        -0.022208     -0.017769     -0.000095
O	      6.23044      3.93358      4.49728        -0.052526     -0.026298      0.063237
O	      6.18090      1.96554      6.79685        -0.034890     -0.077413     -0.135705
O	      8.25770      3.96135      6.80701         0.028009     -0.035796      0.209451
O	      2.14369      4.06210      4.11390         0.220050     -0.172092     -0.161476
O	      4.09328      5.85043      4.33383         0.132170     -0.242453     -0.046545
O	      4.19122      4.10376      6.58584        -0.024220     -0.098452     -0.143867
O	      6.04316      5.94253      6.54353        -0.055744      0.070907     -0.042428
O	      6.34135      3.93579      8.71890         0.082078      0.210692      0.076884
O	      8.34045      5.87062      8.86464        -0.524629      0.012479      0.050167
O	      2.10976      5.89562      6.36694         0.128666     -0.019971     -0.173218
O	      4.13224      7.79582      6.44710         0.028568      0.036511     -0.063129
O	      6.14247      5.93099     11.11732        -0.194356     -0.052938     -0.118724
