# total energy = -197.24646412 eV
 
CRYSTAL
PRIMVEC
0.039884 6.194593 6.259857 
6.237960 0.041526 6.257687 
4.168510 4.137914 0.018134 
PRIMCOORD
36 1
Li	      4.14920      2.13964      2.10418         0.076464     -0.004459      0.058338
Li	      6.23529      2.15023      4.22671        -0.000154      0.044481     -0.057905
Li	      6.26647      2.05252      8.22526        -0.022078      0.032512      0.035028
Li	      6.30374      6.17163      4.19735         0.007896     -0.033686     -0.003585
Li	      4.18583      2.19840      6.30583        -0.070482     -0.032976      0.035306
Li	      6.14364      4.12655      6.24965         0.046123     -0.011274     -0.023856
Li	      8.28501      6.24845     10.41662        -0.030951      0.014134     -0.046862
Li	      4.19504      6.09064      6.32444         0.011795      0.009580      0.027060
Li	      4.18067      4.11398      8.21161         0.023654     -0.029395      0.000571
V	      4.21466      8.06346      4.17484        -0.026317      0.036050     -0.422631
Cr	      4.14129      0.15526      4.17120        -0.074399      0.080187     -0.040380
Fe	      6.30743      6.32428      8.33447        -0.212139     -0.037757      0.374058
Cu	      2.04657      2.04480      0.02841         0.055176      0.065701     -0.148721
Ni	      6.25355      0.09450      6.28470        -0.074945      0.039981     -0.079325
Ni	      6.23879      4.16035      2.10825         0.073607     -0.140400      0.159778
Ni	      2.11998      4.11108      2.07324        -0.055927      0.068357     -0.026701
Ni	      4.23010      4.09398      4.19611         0.026468      0.014540     -0.128662
Ni	      2.18503      4.13140      6.26814        -0.043381      0.005920      0.064582
O	      2.12076      2.05441      1.96927         0.004352      0.117710      0.142304
O	      4.14162      4.14080      2.15990        -0.012053     -0.007388     -0.069174
O	      4.13170      1.97342      4.22854         0.026345     -0.140578      0.074302
O	      6.33314      4.17511      4.08791         0.065295      0.055761      0.217802
O	      6.33551      2.06737      6.23790        -0.009515      0.178377      0.030295
O	      8.35383      4.07073      6.16753        -0.054198      0.039766     -0.063851
O	      1.93603      4.12559      4.18142        -0.005223     -0.044169      0.053540
O	      4.15050      6.32562      4.16969        -0.010697     -0.089900      0.038439
O	      4.16130      4.15875      6.14713        -0.024299      0.019812      0.203719
O	      6.20966      6.24878      6.51162        -0.039079     -0.106500     -0.462104
O	      6.28467      4.22371      8.54384        -0.117671     -0.220116      0.102910
O	      8.15801      6.18062      8.36727         0.468494      0.010589      0.002728
O	      2.09666      6.25450      6.37200         0.150493     -0.020736     -0.334997
O	      4.22762      8.35341      6.04898        -0.007733     -0.131292      0.206045
O	      4.29464      6.20400      8.54092        -0.181374      0.001723     -0.043561
O	      6.29157      8.28437      8.34775        -0.010731      0.220795     -0.014859
O	      6.20186      6.21934     10.34478         0.030503     -0.009670      0.160970
O	      8.55061      8.41028     10.50799         0.016684      0.004318     -0.020600
