# total energy = -196.50593570 eV
 
CRYSTAL
PRIMVEC
-0.019847 6.164456 6.138471 
6.343202 -0.016994 6.135648 
4.224345 4.103353 -0.006989 
PRIMCOORD
36 1
Li	      6.29480      6.18941     12.19921        -0.083735     -0.016681     -0.038248
Li	      6.40516     10.15971      8.30463         0.026035     -0.018945      0.000154
Li	      4.31341      8.14944      8.27676         0.022488      0.034773     -0.017639
Li	      4.21958      6.20516     10.08103        -0.013283     -0.069289      0.072677
Li	      6.29054      8.15247     10.07818         0.025572      0.038218      0.023046
Li	      4.25954      4.05907      4.09093         0.022046     -0.000718     -0.060749
Li	      6.40044      4.20418     10.16193        -0.060867     -0.010465      0.010819
Li	      8.24574      6.10864     10.17736        -0.075178      0.062640     -0.008095
Li	      8.31938      8.28766      8.19284        -0.006680     -0.036536      0.076094
V	      2.23229      8.11568      6.00622        -0.089557      0.275615     -0.347398
Cr	      4.22610      6.10780      2.14819        -0.036544     -0.105582     -0.135897
Fe	      4.26549      2.08633      6.07938         0.179105     -0.066914      0.176072
Cu	      2.11983      4.09179      2.09472         0.152248     -0.125507      0.197484
Cu	      4.22748      6.07722      6.14562        -0.174631      0.024141     -0.163782
Ni	      6.33813      4.09443      6.08973         0.085705     -0.057091      0.007707
Ni	      2.14831      2.03961      4.09883        -0.090578     -0.010940     -0.103094
Ni	      2.12243      4.17912      6.17315        -0.113533     -0.006790     -0.259676
Ni	      6.25648      6.20404      8.21759         0.159008     -0.122733     -0.030545
O	      4.28878      6.11916      8.06035        -0.156174     -0.009801      0.000508
O	      6.28348      6.17226     10.05473        -0.033314     -0.022698      0.367599
O	      1.99292      2.09221      1.96399        -0.079153     -0.134692     -0.088623
O	      4.12930      4.25732      2.04951         0.075952      0.309206      0.025893
O	      4.07545      2.01942      4.17493         0.250421      0.087975     -0.067730
O	      6.34261      4.26521      4.10933        -0.007593     -0.211555     -0.070692
O	      6.33390      2.05380      6.26251        -0.023986     -0.071273      0.068006
O	      8.43093      3.97084      6.23252         0.054179     -0.070189     -0.224807
O	      2.10567      3.96524      4.10820         0.071314      0.302223      0.262096
O	      4.39591      6.18715      4.03541        -0.019339     -0.071127      0.082023
O	      4.22979      4.07468      6.14283        -0.022030      0.012176      0.001543
O	      6.48328      6.16688      6.27233         0.125563      0.130216     -0.163111
O	      6.43039      4.00419      8.15618        -0.119844     -0.162391      0.057103
O	      8.55467      6.07002      8.16982         0.069186      0.168964     -0.067613
O	      1.98054      6.32378      6.13540        -0.123027     -0.141423     -0.018684
O	      4.02481      8.20778      6.13799         0.020384     -0.064143     -0.005429
O	      6.31407      8.15822      8.12922        -0.006916      0.214737      0.159315
O	      8.38088      8.23309     10.42270        -0.003241     -0.053401      0.283673
