# total energy = -197.71740318 eV
 
CRYSTAL
PRIMVEC
0.001037 6.116772 6.595710 
6.062945 0.035084 6.561203 
4.067701 4.081260 -0.002623 
PRIMCOORD
36 1
Li	      4.11397     10.19068      6.63822         0.017601      0.054746      0.025497
Li	      6.14031      2.07295      4.46005         0.014290     -0.037626      0.027764
Li	     10.08247      6.18383      8.73799         0.016415     -0.086795      0.049427
Li	      2.02348      4.00191      2.33381         0.045261     -0.054206      0.102626
Li	      6.03316      6.15718      4.50920        -0.046955      0.022495      0.040085
Li	      8.09397      6.20134      6.73458         0.023398      0.008211      0.023715
Li	      8.06736      6.20148     10.90421         0.044117     -0.030915     -0.013448
Li	      1.95594      4.12965      6.53446         0.033179      0.025769     -0.039903
Li	      4.05073      6.12352      6.46022        -0.036307     -0.047050     -0.097987
V	      8.12413      4.20270      4.49549        -0.047601      0.012659     -0.180090
Cr	      2.01484      6.14991      8.70006         0.026836     -0.024206      0.046270
Fe	      3.91443      4.22629      4.34721         0.104789     -0.162935     -0.225827
Cu	      6.06276      4.09315      6.59985         0.006000      0.004476     -0.211192
Cu	      4.09858      8.10076      4.44653         0.285920     -0.331761     -0.086868
Cu	      8.10323      8.14855      8.76432        -0.176305      0.148249      0.037436
Ni	      2.04506      2.01517      0.04927        -0.093937      0.020112     -0.087434
Ni	      4.08038      8.16207      8.70598         0.028300      0.050207      0.125253
Ni	      6.10322      6.11227      8.68222        -0.055064      0.088476      0.017537
O	      8.06811      6.31501      8.76521         0.163810     -0.150371     -0.012060
O	      3.95421      8.16683      6.70222         0.207436      0.006605     -0.438669
O	      2.07365      1.97998      2.06477        -0.071323      0.082920      0.028242
O	      4.11424      4.05040      2.36096        -0.140825      0.087462     -0.201208
O	      4.09970      1.90923      4.20921        -0.003057      0.012708      0.028949
O	      6.27483      4.07456      4.12704        -0.011189     -0.025464      0.038986
O	      6.19588      2.22140      6.55486        -0.149043     -0.116950     -0.002522
O	      8.02708      4.19869      6.32928        -0.041103      0.075309      0.207293
O	      2.00655      4.06593      4.39809        -0.026462      0.031227      0.019302
O	      4.05044      6.08981      4.38036         0.017769      0.488546      0.029255
O	      4.21394      4.01744      6.22256        -0.002530     -0.087375      0.493789
O	      6.03861      5.94011      6.65685         0.019241      0.160477     -0.073239
O	      5.90677      4.09765      8.85715         0.189561     -0.106014      0.390089
O	      1.99042      6.14048      6.78189        -0.023686     -0.161624     -0.096789
O	      4.03795      6.00168      8.91152         0.043904     -0.073363      0.013851
O	      6.19489      8.19917      8.70244         0.029290     -0.018301     -0.024169
O	      5.90568      6.10467     10.91319         0.038681      0.135390      0.068926
O	      8.21559      8.31769     11.16815        -0.430409     -0.001089     -0.022889
