# total energy = -195.95553459 eV
 
CRYSTAL
PRIMVEC
-0.014326 6.271925 6.263681 
6.181131 -0.038685 6.288294 
4.099880 4.175921 -0.004207 
PRIMCOORD
36 1
Li	     10.22115     10.36451     12.49714        -0.020059      0.106562     -0.031191
Li	      8.25854      8.38162     12.34799        -0.114279      0.035227     -0.039580
Li	      8.17433      4.20493      4.32432         0.022824     -0.022218      0.055122
Li	      6.23968      1.98453      4.36007         0.070816     -0.054406      0.061075
Li	      6.13432      2.11150      8.25670         0.125765     -0.040150     -0.062023
Li	      4.12450      1.99593      6.19705         0.149931     -0.075256     -0.029095
Li	      6.22685      4.03837      6.30632         0.063011     -0.105115     -0.021742
Li	      4.08072      8.39347      4.24268        -0.030617      0.065002     -0.044345
Li	      4.10352      6.32994      6.24440        -0.049846      0.006172      0.027264
V	      2.02198      0.19866      2.12127        -0.069578     -0.244333     -0.001982
Cr	      4.15518      4.09941      8.33008         0.281062      0.213738      0.111927
Fe	      4.11430      4.15018      4.34129        -0.003270     -0.110070     -0.356804
Cu	      6.07588      6.26475      4.30715        -0.047269     -0.056361     -0.013222
Cu	      8.25915      6.27141     10.42066        -0.005771     -0.151822      0.214943
Cu	      6.09490      8.33632      6.27027         0.039372      0.205313     -0.026613
Cu	      6.18390      6.22339      8.35180         0.201089     -0.073318      0.163882
Ni	      4.13498      8.32322      8.36796         0.002857     -0.003638      0.212607
Ni	      8.21222      4.22289      8.22313         0.001701     -0.072596      0.152340
O	      4.15640      8.35071      6.37942         0.101422     -0.067739     -0.253913
O	      6.36313      6.24951     10.33138        -0.136564      0.019343      0.016025
O	      8.26718      8.12053     10.30863         0.047386      0.353591     -0.008675
O	      2.04793      1.98506      2.20368        -0.103970      0.296179     -0.042762
O	      4.23242      4.12163      2.19023        -0.001029      0.091675     -0.003928
O	      3.93001      2.16304      4.15518         0.021017     -0.053771      0.111215
O	      6.07966      4.02456      3.98948         0.094723     -0.094214      0.172422
O	      6.21950      2.04825      6.29797        -0.034540     -0.024287      0.015465
O	      8.22374      4.07204      6.29337         0.057905      0.057270     -0.180460
O	      2.08700      4.40134      4.18348        -0.083197     -0.099269     -0.089706
O	      4.05999      6.16864      4.16940         0.113947      0.166195      0.021887
O	      4.05454      4.22868      6.28528        -0.116156     -0.024841      0.253622
O	      6.11740      6.36725      6.23949        -0.059719      0.066376      0.077779
O	      6.14266      4.31841      8.31819        -0.125412     -0.363629     -0.097518
O	      8.24607      6.30106      8.17311        -0.140239     -0.034303     -0.195210
O	      2.03774      6.19222      6.62546        -0.024703     -0.189631     -0.132286
O	      3.92816      6.15873      8.49541        -0.176130      0.062056     -0.009764
O	      6.20289      8.20879      8.28486        -0.052478      0.216265     -0.026754
