# total energy = -197.98982433 eV
 
CRYSTAL
PRIMVEC
0.036476 5.967069 6.518986 
6.323495 0.003463 6.555972 
4.214947 4.000074 0.001440 
PRIMCOORD
36 1
Li	      6.20605      0.01541      6.44105        -0.015732     -0.040735      0.048218
Li	      6.24986      3.92655      2.23225         0.013550     -0.000811      0.097032
Li	      8.40608      3.99301      4.54215        -0.112551      0.025666     -0.007634
Li	     10.47723      6.06979      8.77669         0.040909      0.010939      0.010875
Li	      8.30712      4.06963      8.63394        -0.020292      0.005800      0.030151
Li	      6.26724      5.92846      4.47829         0.005759     -0.062837      0.005237
Li	      6.34108      3.97245      6.67935        -0.006664      0.061038     -0.051693
Li	      6.40722      3.98554     10.70659         0.047589     -0.023078     -0.025300
Li	      6.42476      5.99671      8.82586         0.003339     -0.016931      0.000418
V	      3.92557      1.94796      2.15538         0.060028      0.185840      0.158840
Cr	      4.23012      3.95168      4.28356        -0.003147     -0.113482      0.046731
Fe	      2.20702      3.99356      6.55308         0.027654      0.092376     -0.020366
Cu	      8.31074      2.03077      6.52272        -0.051769      0.333791      0.322002
Cu	      6.39563      7.95626     10.91397        -0.138433      0.164665     -0.018790
Cu	      8.42400      5.92087      6.57725        -0.125785     -0.070184      0.050883
Cu	      2.17701      6.01651      4.37474         0.052781     -0.082226     -0.179439
Cu	      4.32767      4.04870      8.77407        -0.086988      0.123240     -0.058282
Ni	      4.34165      5.97234      6.48439         0.123085     -0.153110     -0.025399
O	      8.51591      6.17921      8.93203         0.004332     -0.088101      0.031836
O	      2.27677      6.02097      6.44836        -0.145196     -0.250287      0.063775
O	      6.50370      6.11100     10.93036        -0.081405     -0.050279     -0.034580
O	      8.48523      7.99417     11.14584         0.038674      0.131240      0.018429
O	      2.16808      1.95637      2.02445        -0.085284      0.005089     -0.101527
O	      4.18679      3.78562      2.25643        -0.008157     -0.059865      0.017319
O	      4.16750      1.92292      3.99490        -0.027947      0.018588     -0.211631
O	      6.19273      3.85032      4.28479         0.092295     -0.010022     -0.037845
O	      6.08200      1.96045      6.44870         0.151479     -0.016946     -0.045207
O	      8.37161      4.02584      6.60396         0.074932     -0.264571      0.032623
O	      2.18956      4.03845      4.42928        -0.067335     -0.062058      0.082709
O	      4.24695      5.92684      4.41876         0.038509      0.023398     -0.024095
O	      4.20839      3.86563      6.30438        -0.047034      0.225524     -0.109852
O	      6.46635      6.03465      6.47904        -0.052625     -0.059894     -0.013334
O	      6.16847      4.02994      8.75089         0.174015      0.010376      0.019757
O	      4.45417      7.98869      6.83759         0.110861      0.106577     -0.086780
O	      4.28153      6.04661      8.59356         0.032924     -0.079516      0.014922
O	      6.63825      8.00985      8.61123        -0.016371     -0.019213     -0.000006
