# total energy = -196.22378139 eV
 
CRYSTAL
PRIMVEC
-0.045921 6.506700 6.446749 
6.047883 0.012611 6.385773 
4.034880 4.300101 0.004987 
PRIMCOORD
36 1
Li	      4.00558      4.39920      0.14168         0.007456     -0.009676     -0.012456
Li	      8.01608      2.19850      6.41685         0.027618      0.016109     -0.009488
Li	      5.92191      4.39770      2.20595         0.015199     -0.126530      0.028460
Li	      3.91024      2.33048      2.19011         0.047572      0.016512     -0.058383
Li	      7.97549      4.38505      4.44944         0.051757     -0.019949      0.006995
Li	      5.98362      2.34458      4.40347         0.037368      0.009099     -0.074973
Li	      0.06512      1.94662      1.91931        -0.040869     -0.041323     -0.004416
Li	      4.07545      4.15637      4.15239        -0.020438      0.015708     -0.041240
Li	      6.07347      4.18325      6.28684        -0.030209     -0.025884     -0.034645
V	      5.94080      6.70386      8.63996        -0.120994     -0.095439      0.531189
Cr	      2.03868      6.46960      4.28515         0.185935      0.036470      0.135149
Fe	      4.10393      4.35373      8.57308        -0.140056      0.134973     -0.052826
Cu	      2.04078      1.96887      4.06119        -0.331804     -0.178981     -0.019162
Cu	      4.08393      2.11630      6.34502        -0.081374     -0.116382     -0.160415
Cu	      1.99654      4.38978      6.39700        -0.031360      0.039595      0.027816
Cu	      2.02351      4.24754      2.07622        -0.120852     -0.098996     -0.020913
Cu	      0.01352      4.31415      4.29870        -0.127151      0.269331     -0.019689
Cu	      4.02667      6.50373      6.40837         0.068055      0.030633      0.021517
O	      2.05192      6.37356      6.28381        -0.206688     -0.108380     -0.318057
O	      4.11829      8.60255      6.27786         0.107495     -0.173799      0.154245
O	      1.97344      2.04132      2.14548        -0.001654      0.138650     -0.084373
O	      3.87062      4.29891      2.13339         0.248020     -0.070093     -0.030710
O	      3.89207      2.13377      4.33503         0.070271      0.013638      0.345157
O	      6.02805      4.37602      4.26466         0.014337     -0.194580      0.050597
O	      5.95078      2.17802      6.34494         0.081035     -0.034524      0.005044
O	      8.05980      4.37809      6.59493        -0.080936      0.183285     -0.214659
O	      1.98619      4.42776      4.02779         0.087272      0.247814      0.026638
O	      4.07209      6.59324      4.40422        -0.100639     -0.377457     -0.005863
O	      3.94276      4.34852      6.58289        -0.106527      0.090669      0.046067
O	      6.09866      6.59403      6.71507         0.186093      0.095587     -0.188632
O	      6.08423      4.52937      8.59231         0.090745      0.057609      0.056499
O	      7.92374      6.66622      8.64492         0.080378      0.007787      0.017677
O	      4.13405      6.40914      8.49669         0.053259     -0.008501      0.054899
O	      5.99821      8.48239      8.75395         0.005947      0.077433     -0.072785
O	      6.05347      6.38505     10.49743         0.176508      0.378040     -0.112463
O	      8.11916      8.52666     10.60973        -0.100767     -0.178447      0.028199
