# total energy = -101.36518355 eV
 
CRYSTAL
PRIMVEC
-0.000007 2.132063 2.130508 
3.922362 -0.000107 0.000079 
0.000016 9.484682 -9.487272 
PRIMCOORD
16 1
Li	      0.00131      2.52265      1.71789         0.000485     -0.000555      0.013095
Li	      1.96245      2.59489     -0.49270         0.000627     -0.001655      0.010484
Li	      0.00133      4.18867      0.05044        -0.000963     -0.020854      0.022253
Li	      1.96281      7.01656     -4.88527         0.003287     -0.006093      0.010113
Ti	      0.00239      6.96009     -2.70874        -0.001467     -0.078360      0.073055
Ti	      1.96423      9.28351     -7.14714        -0.001384      0.259932     -0.274997
Ni	      1.96280      4.47788     -2.36028        -0.000921      0.062373     -0.069816
Ni	      0.00197      6.95679     -6.94249        -0.000657     -0.044828      0.042084
O	      0.00166      6.93283     -4.79025         0.001005     -0.116912      0.126609
O	      1.96306      7.13511     -7.11240         0.001535      0.005830     -0.008055
O	      0.00154      5.02515     -2.89361        -0.000311      0.174888     -0.167132
O	      1.96280      4.87442     -4.86839        -0.001038      0.021287     -0.030141
O	      0.00137      2.23688     -0.12816        -0.000716      0.030935     -0.019293
O	      1.96261      4.69817     -0.45013         0.000434     -0.141210      0.139756
O	      0.00208      9.03072     -6.88251        -0.000475      0.091767     -0.108317
O	      1.96329      9.02171     -9.01285         0.000560     -0.236543      0.240301
