# total energy = -210.96987419 eV
 
CRYSTAL
PRIMVEC
0.015286 6.245770 6.355568 
6.162806 0.007592 6.363414 
4.119243 4.180002 -0.005668 
PRIMCOORD
36 1
Li	      4.11401      4.19904      0.02483         0.023411     -0.029500     -0.034099
Li	      8.18449      2.13913      6.29018         0.028579      0.040266     -0.073457
Li	      2.03775      0.10058      2.13376         0.080120      0.020342     -0.072450
Li	      8.14212      4.14556      4.34989         0.121477     -0.063067     -0.012521
Li	      4.24745      6.17567      2.17964         0.016434      0.002854      0.042183
Li	      8.23789      4.13952      8.39633        -0.045509      0.052769     -0.069647
Li	      4.17525      4.29190      4.20565        -0.044749      0.040023     -0.033842
Li	      4.09794      8.19600      4.36284        -0.071930      0.062715      0.055185
Li	      4.08007      6.27224      6.23002         0.003031      0.022759      0.036981
Mn	      4.16650      2.03576      6.33239        -0.031580      0.070941      0.105045
Mn	      2.04389      4.17732      6.31036        -0.060733     -0.037686      0.186204
V	      4.05021      2.28587      2.10599        -0.018077     -0.061264     -0.105293
V	      6.13777      6.11144      8.69975         0.037768      0.047140      0.052207
Co	      2.03082      2.08042      4.20500        -0.201097      0.082876      0.088723
Cu	      6.17216      2.19635      4.29219        -0.107682      0.003395      0.095482
Ni	      2.17627      6.24417      4.28147         0.122917      0.027661     -0.033619
Ni	      6.18770      4.18925      6.26585        -0.034244     -0.000369      0.274246
Ni	      8.19060      8.38068      8.53184         0.072787     -0.061763     -0.024707
O	      2.16355      2.08573      2.24038         0.431680     -0.019568     -0.748442
O	      4.12737      4.04212      2.09526         0.036703     -0.136226      0.069759
O	      4.14704      2.08220      4.08502         0.196095      0.148532     -0.160835
O	      6.16998      4.36053      4.25407         0.104967     -0.304926     -0.165878
O	      6.10250      2.13472      6.34683        -0.170687     -0.011427      0.017295
O	      8.22514      4.31707      6.36099         0.026082      0.023500     -0.035591
O	      2.06226      4.08454      4.41893         0.127171      0.197785      0.098869
O	      4.21992      6.29213      4.17524        -0.783501     -0.137342      0.032611
O	      4.04249      4.04201      6.44516        -0.034751     -0.016445     -0.091257
O	      6.25849      6.31847      6.29555         0.215810      0.108355      0.476783
O	      6.14328      4.34706      8.39438         0.005628     -0.038046     -0.022702
O	      8.01736      6.29593      8.53781        -0.085223     -0.022293     -0.073525
O	      2.08428      6.04789      6.30496        -0.028112     -0.111326      0.147615
O	      4.22063      8.32309      6.48911         0.130079      0.032953      0.035391
O	      4.32930      6.32838      8.42463        -0.069637      0.055373      0.058188
O	      6.13421      8.21674      8.34263        -0.150077     -0.005170     -0.120906
O	      6.16303      6.16787     10.44173        -0.043599     -0.001428     -0.053245
O	      8.11927      8.29827     10.55604         0.200452      0.017609      0.059250
