# total energy = -209.52440871 eV
 
CRYSTAL
PRIMVEC
0.005064 6.447380 6.299587 
6.067047 0.060225 6.243766 
4.068245 4.285572 0.016665 
PRIMCOORD
36 1
Li	      8.15987     10.74119     10.54269        -0.032778      0.020480     -0.073522
Li	      1.98966      4.31007      2.23377        -0.013512      0.022295     -0.014047
Li	      2.07911      2.35757      4.31690        -0.005081     -0.035606      0.031355
Li	      3.88873      4.22406      4.32970         0.054290     -0.018409     -0.109969
Li	      3.99415      2.25328      6.13071        -0.027687     -0.052858     -0.008908
Li	      2.00733      6.36720      4.27600         0.027749      0.026789     -0.024723
Li	      2.08110      4.34337      6.17184        -0.108784      0.047488      0.077301
Li	      4.13632      6.26449      6.22895        -0.057801      0.046041      0.001524
Li	      4.06751      4.30910      8.29068        -0.014942     -0.040980      0.036935
Mn	      5.99965      0.09703      6.19409         0.145119      0.169803      0.118585
Mn	      4.02899      2.23566      2.17186         0.028645      0.036793     -0.032462
V	      2.15805      6.47105      8.50355         0.029595      0.010473      0.097704
V	      9.95863      6.52021      8.51040        -0.007497      0.357887     -0.237226
Co	      6.05623      4.34163      6.21532         0.034214      0.077831     -0.772251
Cu	      6.08248      4.43644     10.45415        -0.062846     -0.074430     -0.122379
Cu	      6.14518      6.38130      8.34257        -0.070955     -0.013904     -0.014585
Ni	      8.12634      8.66269     12.48445         0.012531     -0.116999      0.146643
Ni	      6.13575      8.58599     10.45726        -0.034654      0.065369     -0.027457
O	      2.02584      1.98426      2.09569        -0.045662      0.091241      0.069780
O	      4.14583      4.55591      2.13733        -0.029992     -0.212269     -0.061488
O	      4.09343      2.18578      4.03665        -0.085200      0.018243      0.153116
O	      6.09170      4.30338      4.03674         0.057002     -0.126144     -0.387675
O	      6.07305      2.15049      6.27072        -0.119254     -0.383359     -0.075490
O	      8.13026      4.27994      6.25150        -0.250696      0.108967     -0.048016
O	      1.92060      4.32197      4.22170         0.096525     -0.006802      0.078422
O	      4.06502      6.54563      4.00205         0.060831     -0.029082      0.485565
O	      4.20271      4.31065      6.24745         0.005925     -0.034097     -0.054864
O	      6.09757      6.22647      6.41486         0.023871      0.642029     -0.037304
O	      6.11960      4.03668      8.11120         0.074161     -0.561720      1.025453
O	      8.21836      6.46912      8.35757        -0.107189     -0.035158     -0.041183
O	      1.90533      6.51802      6.50104         0.090060     -0.097077     -0.109583
O	      4.05984      8.81707      6.53328         0.079702     -0.023057     -0.032840
O	      3.92245      6.46931      8.32913         0.046240      0.059019     -0.022368
O	      5.99899      8.87287      8.40302         0.115754      0.077217     -0.095029
O	      6.09112      6.49828     10.30609        -0.008813     -0.025413      0.195440
O	      8.17109      8.62270     10.47107         0.101129      0.009401     -0.114455
