# total energy = -210.30273615 eV
 
CRYSTAL
PRIMVEC
-0.020280 6.096613 6.147865 
6.416770 -0.010025 6.136964 
4.270226 4.049976 0.000748 
PRIMCOORD
36 1
Li	      6.38105      4.03545      2.10200        -0.046336     -0.024083     -0.000214
Li	      6.36235      2.03597      4.09529         0.052595      0.014147      0.001340
Li	     10.62449      6.08806      8.22938        -0.015423     -0.003603     -0.013881
Li	      8.57459      4.11485      8.22508         0.045678      0.040100      0.031222
Li	      2.08058      2.00590      4.01646        -0.079836      0.078847     -0.024833
Li	      8.58575      6.02840      6.16478         0.023003      0.003939      0.085006
Li	      4.26759      8.03233      4.03829         0.045360     -0.085810      0.013629
Li	      2.24667      6.05826      4.03765         0.090976     -0.019738     -0.008427
Li	      4.26575      6.09315      6.03521         0.054779      0.059599     -0.080756
Mn	      4.30057      4.10188      4.04161        -0.147817      0.077282      0.157994
Mn	      8.54782      8.10113      8.22172        -0.030092     -0.093337     -0.070771
V	      2.06242      1.96605      0.06304         0.114843     -0.156435      0.016301
V	      6.39908      8.01855      6.09664        -0.018681      0.263929      0.041589
Co	      4.25477     10.13071      6.13826        -0.099768      0.024341      0.028844
Cu	      4.27438      2.01730      2.07878        -0.027282     -0.110181     -0.091293
Cu	      4.29809      0.03506      4.13372         0.063586      0.005169     -0.104032
Cu	      6.37473      4.05549      6.13898        -0.090832      0.002019      0.018892
Ni	      6.45263      6.08584      8.29090        -0.033092      0.018031      0.043222
O	      6.30669      6.07856     10.36393        -0.054960     -0.000720      0.049084
O	      2.09429      2.01844      1.82499        -0.052358      0.011208      0.026114
O	      4.26859      3.97423      1.96815         0.013766      0.063333     -0.246781
O	      4.26049      2.07414      4.02249         0.043644     -0.106418      0.165380
O	      6.30795      4.06175      4.21898         0.089855      0.000265     -0.026093
O	      6.57035      1.94491      6.11833        -0.115920      0.051817      0.015283
O	      8.71288      3.97256      6.09495         0.110558      0.088225      0.071396
O	      2.25738      4.06670      4.19412         0.095556     -0.041273     -0.233890
O	      4.28874      5.95877      4.07321         0.013859      0.107471     -0.015486
O	      4.07541      4.11007      6.17882        -0.012751     -0.007386      0.056527
O	      6.34491      6.23031      6.19087        -0.070396     -0.165478     -0.037692
O	      6.24248      4.08100      8.08078         0.045346     -0.130504     -0.049604
O	      8.47940      6.21714      8.18847         0.143258     -0.169186      0.011239
O	      1.93865      6.05784      6.11749         0.002494      0.023725     -0.023135
O	      4.28989      8.17895      6.19089        -0.045714     -0.105683      0.007875
O	      4.32688      6.05985      8.30974        -0.070991      0.191600     -0.057769
O	      6.59969      8.14671      8.12484        -0.004446      0.104024      0.119101
O	      8.58230      8.16357     10.30073        -0.032459     -0.009236      0.124621
