# total energy = -209.41767631 eV
 
CRYSTAL
PRIMVEC
-0.000369 6.138520 6.292601 
6.336743 -0.060552 6.356318 
4.176521 4.085731 0.005496 
PRIMCOORD
36 1
Li	      6.39763     10.07513      8.50354         0.045921     -0.028508      0.036597
Li	      4.34943      8.08555      8.49036        -0.002646     -0.050779      0.013907
Li	      4.12492      0.09513      4.09809        -0.025856      0.051923     -0.059279
Li	      6.18495      2.04795      4.15041        -0.020407     -0.023420      0.009597
Li	      6.38773      6.04235      4.36624         0.012162     -0.010510     -0.008483
Li	      4.08152      2.07862      6.22131        -0.010166     -0.047789     -0.023610
Li	      6.20820      4.13208      6.25761         0.028412     -0.001298     -0.051051
Li	      6.39050      8.05750      6.46610        -0.013742      0.014407     -0.028837
Li	      4.12042      4.11916      8.37632        -0.022179      0.042647      0.026647
Mn	      8.41671      1.98983      6.35851         0.005926      0.025213      0.005499
Mn	      4.29937      4.00138      4.27782         0.163597     -0.110828      0.070218
V	      2.11837      4.02641      2.09926         0.067124      0.100066     -0.042269
V	      8.37570      6.15283     10.54250        -0.054646     -0.118823      0.057530
Co	      4.19454     10.21251      6.31946         0.047277     -0.029314      0.029746
Ni	      6.31112      2.03348      8.42373        -0.031241      0.047977      0.043539
Ni	      4.21267      8.14909      4.21252         0.064910      0.002786     -0.010528
Ni	      4.29200      6.09822      6.40683        -0.174946      0.008132     -0.071582
Ni	      6.24059      6.11870      8.35050        -0.024516     -0.042352      0.097088
O	      6.32684      7.98613      8.41410         0.008109      0.162254      0.056315
O	      2.04196      2.23457      2.16178         0.003098     -0.094949      0.076643
O	      4.09521      4.12602      2.05901         0.028174     -0.085088     -0.014822
O	      4.18681      2.17820      4.22514         0.005083      0.067827      0.005941
O	      6.13182      4.06697      4.19230        -0.097539     -0.032435     -0.005093
O	      6.47062      1.86914      6.40890         0.037246     -0.005941     -0.075087
O	      8.57084      3.97438      6.42946         0.027896     -0.049310      0.083338
O	      2.17558      4.20901      4.12143         0.073838      0.010693      0.021394
O	      4.08075      6.06314      4.19800        -0.009938     -0.042948     -0.069588
O	      4.20576      4.09996      6.12616         0.007713     -0.158739     -0.058197
O	      6.26638      6.11404      6.39832         0.201789     -0.041914     -0.204240
O	      6.44694      4.10734      8.50952        -0.006982     -0.046657     -0.078620
O	      8.39539      5.96362      8.53621         0.005093     -0.021551      0.042774
O	      2.00444      6.19361      6.23055        -0.071471      0.065160     -0.079999
O	      4.04801      8.22658      6.25011        -0.081595      0.189676      0.057195
O	      4.24929      6.08801      8.40264        -0.106791     -0.023624      0.183200
O	      6.43837      6.02905     10.71070         0.006438      0.154071      0.007637
O	      8.47898      7.94379     10.48672        -0.085144      0.123945     -0.043521
