# total energy = -213.47300589 eV
 
CRYSTAL
PRIMVEC
0.012430 6.216362 6.316929 
6.162593 -0.018835 6.347660 
4.112665 4.169802 -0.017028 
PRIMCOORD
36 1
Li	      8.17534      2.18334      6.29087         0.030549     -0.008448      0.043554
Li	      8.23246      4.14792      4.39028        -0.016777      0.060225      0.013674
Li	     10.19302      6.30933      8.44301         0.001592      0.017266      0.018360
Li	      6.12633      6.23233      4.28013         0.010544      0.008279      0.023545
Li	      8.22552      6.14790      6.38514         0.012833      0.063983     -0.015540
Li	      6.28461      4.12018      6.37379        -0.016294     -0.015276      0.011363
Li	      6.13024      4.11182     10.47774         0.004214     -0.002817     -0.031560
Li	      8.27150      6.18002     10.46009        -0.006936     -0.015945     -0.096449
Li	      4.21634      4.05648      8.44775        -0.038463      0.011808     -0.065903
Mn	      4.09768      4.20008      4.24642         0.123416     -0.093711     -0.067419
Mn	      6.20187      6.17965      8.42810        -0.027684      0.032883      0.008252
V	      3.99080      2.07281      2.14130        -0.018766     -0.040813      0.033139
V	      6.34098      8.24774     10.61592        -0.339028      0.094530     -0.086319
Co	      6.18817     10.34217      8.45183         0.190515      0.182027      0.111283
Co	      2.06131      4.13730      6.26722         0.311096     -0.192458     -0.189521
Cu	      6.12604     -0.00269      6.31885         0.086745      0.008932     -0.027523
Ni	      8.17388      4.20571      8.38428         0.059215     -0.044719      0.110063
Ni	      4.10060      6.23251      6.26681         0.073106     -0.011796     -0.001792
O	      2.21330      2.08623      2.06328        -0.087772     -0.003486      0.055076
O	      4.17169      4.09375      2.28685        -0.085559     -0.095134      0.045008
O	      4.20637      2.18158      4.10536        -0.008470      0.018293     -0.049661
O	      6.08304      4.07509      4.15035        -0.011303      0.002365      0.112149
O	      6.16008      1.97691      6.18212         0.048387      0.058498     -0.084922
O	      8.30084      4.13546      6.37910        -0.034677      0.023875     -0.132898
O	      2.18731      4.11983      4.18552        -0.033353      0.042803      0.224050
O	      4.12501      6.09369      4.21984        -0.009974     -0.022005     -0.078171
O	      3.99312      4.16484      6.16216        -0.033079     -0.023261      0.020067
O	      6.15643      6.36913      6.43490        -0.111007      0.227994     -0.006763
O	      6.15880      4.27776      8.42185        -0.115278      0.046282     -0.012561
O	      8.08594      6.23671      8.42735        -0.040794      0.065412      0.004187
O	      2.03635      6.05624      6.47843        -0.271383     -0.228159      0.089710
O	      4.23586      8.33105      6.42854        -0.012743      0.052867      0.006048
O	      4.15312      6.29990      8.37506         0.045334     -0.033623      0.060840
O	      6.07478      8.20205      8.50461         0.029624     -0.142152     -0.070343
O	      6.14394      6.30649     10.36841         0.010365     -0.038383      0.028728
O	      8.08738      8.31269     10.53036         0.281802     -0.006136     -0.001748
