# total energy = -211.20667340 eV
 
CRYSTAL
PRIMVEC
-0.021511 6.241532 6.290850 
6.273021 -0.049684 6.318894 
4.144852 4.142466 0.003873 
PRIMCOORD
36 1
Li	      6.28740     10.25897      8.42957         0.000999     -0.027869     -0.037510
Li	      6.28470      6.11305      4.39098         0.018855     -0.029987     -0.008048
Li	      4.22133      4.09742      4.42510        -0.007466      0.008224      0.009382
Li	      4.01042      2.24503      6.31422        -0.016502      0.001029      0.030475
Li	      6.06627      4.30261      6.24728         0.015929      0.023792      0.007680
Li	      6.32668      8.16766      6.38661        -0.011054      0.004024      0.045805
Li	      4.29478      6.06164      6.34138         0.010961      0.001620     -0.007825
Li	      4.06729      4.18767      8.16626        -0.028550      0.011653      0.002293
Li	      6.18620      6.30901      8.12554        -0.049139      0.087481     -0.036938
Mn	      2.06968      8.27076      6.30258        -0.018666      0.019666      0.054751
Mn	      4.12647      6.23419     10.42081        -0.033659      0.000032      0.012882
V	      2.05111      4.13823      2.20056         0.028964      0.015366     -0.111199
V	      4.11756      6.22352      2.15095         0.017413     -0.049909     -0.069288
Co	      4.15241      4.12401      0.06337        -0.024080      0.017062      0.036194
Co	      4.20300      8.25791      8.40187         0.091454     -0.001245      0.013607
Ni	      6.22673      2.07808      4.15105         0.051590     -0.051782      0.115889
Ni	      4.14090      8.30385      4.22530        -0.009720      0.001310      0.020069
Ni	      8.28384      6.22628     10.49998         0.020558      0.002555      0.010674
O	      4.13850      4.15006      6.28446         0.007911      0.015625     -0.003076
O	      6.23381      6.21936      6.26225        -0.035693      0.011165     -0.005715
O	      2.06431      2.15337      2.12441        -0.001921     -0.014579      0.020554
O	      4.08234      4.11381      2.03053         0.011749      0.019643     -0.065860
O	      4.19977      1.93713      4.04483        -0.083801     -0.017231     -0.025414
O	      6.42401      4.06705      4.23794         0.015055      0.115850     -0.009546
O	      6.30270      1.88673      6.48251         0.033713     -0.059273     -0.010843
O	      8.47423      3.94389      6.45661         0.048713      0.012155     -0.045456
O	      2.02890      4.21687      4.01476         0.097716     -0.071711      0.054976
O	      4.08817      6.24733      3.98212         0.108701     -0.124067      0.060676
O	      6.37438      3.97241      8.39664        -0.031257      0.008232     -0.074368
O	      8.43262      6.06406      8.41129        -0.008446      0.018617     -0.065574
O	      1.92221      6.37748      6.22242        -0.029718     -0.007573      0.105707
O	      4.11461      8.42815      6.38529        -0.017797      0.016249      0.059916
O	      4.18346      6.37126      8.43433        -0.058833     -0.106771      0.062641
O	      6.07251      8.29251      8.44990        -0.031286      0.008152     -0.154754
O	      6.18508      6.18435     10.73126        -0.076442      0.053933      0.032420
O	      8.34588      8.34657     10.50899        -0.006253      0.088560     -0.025175
