# total energy = -102.82227264 eV
 
CRYSTAL
PRIMVEC
0.000606 2.127260 2.114371 
6.126460 0.018424 -2.131176 
-2.021483 6.406963 -4.254250 
PRIMCOORD
16 1
Li	      0.05852      2.27991      1.96281        -0.008890      0.004460     -0.011090
Li	      1.89179      1.95179      0.13639         0.017813      0.010884      0.005768
Li	      4.22275      2.23718     -2.16883        -0.032561     -0.021481     -0.005237
Li	      4.18747      4.30346     -4.28511        -0.002954     -0.000912      0.010164
Ti	      2.15251      4.25366     -2.07160         0.388157     -0.179699      0.188983
Ti	      2.12133      6.48148     -4.34699         0.246088      0.202487     -0.201199
Ni	     -0.05813      4.20594      0.05324        -0.034535      0.033166     -0.028946
Ni	     -0.11008      6.39220     -2.13873        -0.103249     -0.004112      0.008020
O	      3.98778      4.30122     -2.14806        -0.444415      0.010892      0.000291
O	      4.01932      1.97774      0.11728         0.028735     -0.170458      0.167551
O	      2.04553      6.38508     -2.13588         0.083013     -0.018989      0.017510
O	      2.07406      2.31965     -2.27186         0.073438      0.159319     -0.204528
O	      3.96476      6.37580     -4.24733        -0.374910      0.000757      0.006120
O	      0.13119      6.31030     -4.18260         0.095410      0.103741     -0.083227
O	      0.10732      4.28723     -2.14901         0.057686     -0.006502      0.017831
O	      0.00302      2.19647     -0.05794         0.011173     -0.123555      0.111989
