# total energy = -214.15125131 eV
 
CRYSTAL
PRIMVEC
0.026322 6.389684 6.303205 
6.187574 0.038650 6.292628 
4.113687 4.240639 0.036898 
PRIMCOORD
36 1
Li	      2.12930      0.05511      2.12454        -0.060561      0.071215     -0.049976
Li	      4.06918      1.98767      2.21651         0.017344     -0.092475     -0.074166
Li	      4.09530      0.22676      4.04035        -0.020814      0.019447      0.028886
Li	      8.30345      4.34136      8.41203         0.012250     -0.009755     -0.002222
Li	      2.29126      2.18007      4.05480        -0.061423     -0.024834      0.062824
Li	      4.14387      4.14466      4.05308        -0.002230      0.017049     -0.014223
Li	      4.19938      2.12779      6.07596         0.026412      0.010890      0.050313
Li	      4.07180      6.42598      6.50853        -0.036657      0.018333     -0.011272
Li	      6.04635      6.41089      8.47638        -0.013874     -0.020340      0.004361
Mn	      4.07359      4.21426      0.06068         0.026260      0.051691      0.213793
Mn	     10.31231      8.49744     10.48589         0.064111     -0.208876      0.101505
V	      6.27182      4.34456      6.27326         0.099285     -0.079535     -0.420345
V	      6.34531      8.30514      6.39021        -0.103258      0.004832     -0.330448
Co	      2.07495      2.08370      0.10835        -0.180673      0.114079      0.171006
Co	      4.14529      6.32696      2.15230        -0.361938      0.127585      0.724349
Co	      2.07584      6.34832      4.26271         0.123159     -0.104365     -0.152188
Cu	      6.14413      8.53683     10.44257         0.097143      0.096752      0.147511
Ni	      8.23266      8.58186      8.49253         0.021721     -0.013680     -0.007286
O	      1.91824      2.13328      2.12614        -0.334328     -0.118574     -1.056852
O	      4.09958      4.32426      1.96180         0.007581      0.287525     -0.198354
O	      4.25744      2.18549      4.13812        -0.150888      0.011703     -0.034293
O	      6.12920      4.41238      4.50999         0.044100     -0.039144      0.448786
O	      6.15113      2.32195      6.35683         0.457106      0.027407     -0.008217
O	      8.21894      4.26574      6.31704         0.030973     -0.052827     -0.006083
O	      2.14375      4.37579      4.39782         0.015784      0.052694      0.113726
O	      3.99219      6.52151      4.19613         0.076973      0.184559     -0.254738
O	      4.05165      4.29467      6.35481        -0.000537      0.007098     -0.036280
O	      6.27401      6.50021      6.32094         0.020592      0.036292      0.044340
O	      6.19324      4.30323      8.33102         0.065179     -0.095655     -0.043923
O	      8.36746      6.48002      8.62737         0.434017     -0.186213      0.016961
O	      1.97405      6.27835      6.21431        -0.030058     -0.062060     -0.017928
O	      4.25263      8.42488      6.20993        -0.161046     -0.015965      0.003133
O	      4.09227      6.31241      8.45385         0.013609      0.087623      0.017642
O	      6.16142      8.51986      8.16766        -0.088389     -0.059123      0.086548
O	      6.29501      6.22605     10.61233        -0.045243     -0.031933     -0.036177
O	      8.11513      8.32437     10.58182        -0.001680     -0.011421      0.519287
