# total energy = -216.39160903 eV
 
CRYSTAL
PRIMVEC
0.029004 6.202994 6.440631 
6.215215 0.023291 6.445495 
4.121580 4.117179 0.039323 
PRIMCOORD
36 1
Li	      6.16189      0.04200      6.39172        -0.024019      0.028295     -0.071951
Li	      2.23084      6.15274      8.46689         0.043300     -0.013397     -0.016183
Li	      4.18991      6.21988     10.68850        -0.043147      0.045188     -0.009834
Li	      6.28997      8.15680     10.66492         0.029184      0.039829     -0.027576
Li	      8.26349      4.18848      8.47482        -0.055559      0.012897     -0.011351
Li	      6.19158      6.21942      4.45043         0.052413     -0.036189      0.014266
Li	      8.22699      6.13977      6.56462         0.089391      0.005973     -0.037910
Li	      4.18212      6.21085      6.62345        -0.023654     -0.005473     -0.010338
Li	      4.10903      4.23310      8.59133         0.032572      0.000540      0.055861
Mn	      8.24680      2.08302      6.48372         0.012711     -0.087988     -0.163526
Mn	      6.17684      2.09760      8.53928        -0.029593      0.028404     -0.021202
V	      4.40552      3.95887      4.27954         0.092268      0.088041      0.127015
V	      6.25992      4.23051     10.74016        -0.104409     -0.096310     -0.007125
Co	      4.13806      8.21588      8.59218         0.041406     -0.046277     -0.058807
Co	      2.08765      6.17546      4.33034         0.024513      0.036847      0.012893
Co	      6.22567      6.22687      8.61958        -0.067005     -0.062987      0.047529
Cu	      6.26046      4.20174      6.45925        -0.128592      0.048106     -0.041209
Cu	      6.23747      8.23795      6.57486         0.038202      0.002636     -0.046026
O	      1.95523      2.03076      1.96009        -0.063064      0.004810      0.069896
O	      3.96787      4.06354      2.47813        -0.024398      0.055476     -0.066156
O	      4.15486      2.20088      4.33901        -0.010298     -0.015987      0.008054
O	      6.12560      4.08085      4.13382        -0.037141     -0.024196     -0.107795
O	      6.26052      2.14505      6.56832        -0.103914     -0.067783      0.066020
O	      8.20095      4.01713      6.45824        -0.055302      0.198151      0.051562
O	      1.92389      4.08239      4.54743         0.012468     -0.008313      0.005753
O	      4.18217      6.18817      4.11579        -0.031245     -0.023887      0.020873
O	      4.25728      4.25959      6.10513         0.211829      0.025297      0.047541
O	      6.25014      6.16939      6.67926         0.032351     -0.002463     -0.079660
O	      6.22212      4.29256      8.84200         0.017876      0.040734      0.119614
O	      8.30654      6.25674      8.66024         0.051591     -0.010395      0.076869
O	      2.02497      6.29892      6.40577        -0.013341      0.046592      0.044295
O	      3.96465      8.29954      6.42248        -0.089179      0.011721     -0.048168
O	      4.29743      6.24337      8.61831        -0.001766     -0.070835     -0.019493
O	      6.22286      8.16987      8.49968         0.020653     -0.054078      0.067326
O	      6.22830      6.17380     10.61027         0.057429     -0.003700      0.018305
O	      8.43185      8.29267     10.95113         0.045469     -0.089280     -0.009361
