# total energy = -215.84276679 eV
 
CRYSTAL
PRIMVEC
0.021634 6.155753 6.178269 
6.276344 -0.008809 6.208720 
4.187042 4.127041 -0.008663 
PRIMCOORD
36 1
Li	      2.09870      0.02071      2.05952        -0.009715      0.014283      0.039539
Li	      4.21774      8.14398      8.27639        -0.009805     -0.046585      0.048361
Li	      4.13984      0.04335      4.11102        -0.058210      0.032504     -0.017809
Li	      0.02959      2.05587      2.06711         0.016290     -0.022144     -0.009338
Li	      6.33216      6.14056      4.14083         0.052258     -0.039327      0.011333
Li	      2.09004      6.13213      4.14291        -0.010102      0.004009      0.007573
Li	      6.25475      8.23842      6.21298         0.022175     -0.013227      0.010029
Li	      4.22957      6.16823      6.20129         0.056753     -0.029330      0.045681
Li	      6.28894      6.20704      8.20765        -0.036632      0.008867     -0.053390
Mn	      2.08131      2.02653      0.02796         0.043662     -0.063088     -0.002620
Mn	      8.32432      6.18665      6.16972        -0.031097      0.035341     -0.070148
V	      0.08345      4.01428      4.09426        -0.040110      0.051896     -0.028222
V	      4.13160      4.21655      8.26446         0.040499      0.245060     -0.034759
Co	      4.28056     10.24803      6.25443         0.079790     -0.083557      0.089526
Co	      4.19493      4.17586      4.07581        -0.001666     -0.016401      0.055171
Co	      6.29294      4.12842      6.19016        -0.101803      0.151428     -0.071327
Ni	      6.26350      8.19971     10.25836         0.018987     -0.078952     -0.042297
Ni	      8.37387      4.12157      8.27583        -0.039523      0.058648      0.020494
O	      2.10784      2.08371      1.87778        -0.018719     -0.124982     -0.110412
O	      4.13700      4.13002      1.92936         0.144084     -0.011617     -0.270977
O	      4.21086      2.09301      4.24225        -0.134228      0.057093      0.115853
O	      6.21241      4.09628      4.29040        -0.085598      0.107880      0.064498
O	      6.34229      2.10802      6.14617         0.074525      0.009844      0.105332
O	      8.26733      4.02460      6.20378        -0.014748     -0.050961     -0.074948
O	      2.05077      4.13209      4.10245        -0.024587     -0.012970      0.108355
O	      4.20516      6.32435      4.10214         0.029296     -0.118774     -0.020166
O	      4.35340      4.13704      6.27532         0.008141     -0.009418      0.014734
O	      6.37982      6.02037      6.18921        -0.007184     -0.059845     -0.021842
O	      6.25274      4.12473      8.29057        -0.065844     -0.008758      0.032210
O	      8.40517      6.27462      8.11094         0.020408      0.078013     -0.076500
O	      2.05145      6.28120      6.18292         0.009748      0.065578      0.011435
O	      4.07191      8.20918      6.09110        -0.032330      0.040851      0.034004
O	      4.21801      5.99934      8.28072        -0.041648     -0.171370      0.011714
O	      6.40698      8.20100      8.25125         0.065528      0.031474     -0.099739
O	      6.26487      6.00119     10.49265         0.006774     -0.039498      0.120594
O	      8.43837      8.17722     10.30708         0.074630      0.008035      0.058057
