# total energy = -218.72981635 eV
 
CRYSTAL
PRIMVEC
-0.022627 6.223867 6.098999 
6.204295 -0.022387 6.098853 
4.147852 4.160698 -0.026765 
PRIMCOORD
36 1
Li	      6.17411      4.20266      2.02383        -0.089364      0.003615      0.076697
Li	      4.10051      2.08696      2.07435        -0.009578      0.097732      0.022353
Li	      8.22035     10.31955     10.08621        -0.018276      0.036392     -0.126367
Li	      6.24505      2.11891      4.04164        -0.070266      0.034723     -0.039982
Li	      4.18807      6.22255      2.08022        -0.028164     -0.037059      0.026157
Li	      4.08392      8.24211      4.03523         0.043466     -0.022116     -0.087050
Li	      2.13234      6.26693      4.05262         0.016515     -0.038198     -0.067446
Li	      2.03739      4.18678      6.01289        -0.013966      0.031858      0.018024
Li	      8.29402      8.29162      8.22902         0.062660      0.006703      0.043676
Mn	      8.26360      8.26489     12.12428        -0.099748     -0.034975      0.160073
Mn	      4.11457      6.23258      6.06832         0.006957     -0.011166      0.086870
V	      6.18716      4.09203      6.06576        -0.029957     -0.015789     -0.070882
V	      6.20102      6.38690      8.26796        -0.087226     -0.526113     -0.317613
Co	      0.01550      6.18099      6.07776        -0.005720      0.068437      0.170227
Co	      2.13367      4.10795      2.09552        -1.393349      0.321287     -0.863658
Co	      2.08817      2.08927      4.02387         0.000989     -0.059130      0.126263
Co	      4.14259      2.04990      6.04371         0.069614     -0.040246      0.116267
Ni	      4.10416      4.13385      4.02083         0.147802     -0.030448     -0.075401
O	      2.05067      2.13778      1.93296         0.208262      0.612101     -0.049952
O	      4.00893      4.21958      1.97435        -0.102747     -0.142161      0.047220
O	      4.09576      2.10264      4.10366         0.176759     -0.275464     -0.218379
O	      6.20306      4.17537      4.21082         0.241801     -0.110636     -0.424139
O	      6.28120      2.13446      6.09623         0.023730     -0.316201     -0.051342
O	      8.21819      4.02908      6.07812         0.431652      0.077642      0.713128
O	      2.05235      4.11498      4.02192         0.062145      0.175705     -0.819683
O	      4.18121      6.17317      4.17132        -0.192220      0.299749     -0.178280
O	      4.26114      4.13668      6.10746        -0.416942     -0.040328      0.287662
O	      6.19664      6.10064      6.17492         0.070198      0.317586     -0.036430
O	      6.29281      4.21790      7.96853         0.386925     -0.221118      0.741243
O	      8.06539      6.17151      8.05733         0.697606     -0.636562      0.162644
O	      2.04326      6.36925      6.12853         0.010569     -0.173008      0.017329
O	      3.96740      8.31505      6.06573         0.251158     -0.038510     -0.016561
O	      4.34008      6.18259      8.00523        -0.450377     -0.056427      0.196604
O	      6.21399      8.10425      8.08278         0.091071      0.770712     -0.091955
O	      6.15996      6.19818      9.99308        -0.015843     -0.028578      0.670840
O	      8.23843      8.28479     10.27152         0.023867     -0.000008     -0.148158
