# total energy = -214.01169363 eV
 
CRYSTAL
PRIMVEC
0.070553 6.123347 6.216015 
6.350876 0.021890 6.264031 
4.235889 4.116368 0.012835 
PRIMCOORD
36 1
Li	      8.59088      8.21732     12.43799         0.021293      0.021453      0.011002
Li	      6.32315      2.10899      4.16772         0.009029     -0.077595     -0.018494
Li	      4.30122      6.18311      2.31587         0.020420      0.012653     -0.041931
Li	      6.24965      6.18577      4.28015         0.018289     -0.021419     -0.026362
Li	      4.20458      4.24245      4.28734        -0.008021     -0.001806      0.013935
Li	      4.10503      2.10066      6.09722         0.012024     -0.073293     -0.127502
Li	      2.36891      6.12286      4.22187        -0.026630      0.030112      0.045998
Li	      4.41087      6.09641      6.09817         0.010951      0.000155      0.058458
Li	      6.39113      6.12718      8.15505         0.000405     -0.014092      0.048473
Mn	      4.32823      8.12050      8.31892         0.025779      0.017986     -0.001500
Mn	      8.51614      8.15175      8.30947        -0.012646     -0.075781     -0.034045
V	      6.36239      0.22406      6.17952        -0.192813     -0.002480     -0.191236
V	      8.48827      4.26287      8.45487         0.019562      0.043885     -0.153339
Fe	      6.30677      4.20659      2.22356         0.001345     -0.049704     -0.155273
Co	      6.38759      8.16247      6.21030        -0.000157     -0.226307     -0.089743
Cu	      8.41588      4.12240      4.16861         0.131490      0.033084      0.101266
Ni	      6.30916      4.17615      6.19150         0.104072     -0.088002     -0.042240
Ni	      4.26793      8.08797      4.18262         0.037909      0.089086     -0.004315
O	      4.26198      6.15682      4.20156        -0.031005     -0.180342      0.014263
O	      2.27102      2.10339      2.06465         0.033897      0.016225      0.022571
O	      4.22002      4.16503      2.00512         0.074307      0.027071     -0.006084
O	      4.31760      1.92761      3.99640        -0.062174      0.027917     -0.004939
O	      6.38604      4.09614      4.15484        -0.064747     -0.042123     -0.038443
O	      6.41436      1.97739      6.22633         0.014710      0.001354     -0.016116
O	      8.68170      4.11387      6.47315         0.007164      0.012979      0.130037
O	      2.10362      4.10282      4.17207         0.111364      0.031404      0.068192
O	      4.19455      4.02865      6.34322        -0.090617     -0.020464      0.074401
O	      6.42322      6.22669      6.24408        -0.003746      0.166301      0.022724
O	      6.54899      4.08947      8.25424        -0.081512      0.001534      0.055050
O	      8.49243      6.07465      8.41784         0.031446      0.085023     -0.000809
O	      1.94325      6.05011      6.30328         0.093436      0.032007      0.055440
O	      4.43082      8.27850      6.30305        -0.041707      0.055993      0.116191
O	      4.13260      6.00966      8.15627        -0.005092     -0.015696     -0.129633
O	      6.31125      8.21578      8.17227        -0.030277      0.014472      0.086814
O	      6.33429      6.08373     10.62604        -0.028568      0.163037      0.186082
O	      8.55536      8.27667     10.27278        -0.099180      0.005371     -0.028894
