# total energy = -215.34604470 eV
 
CRYSTAL
PRIMVEC
-0.004735 6.291884 6.234968 
6.132741 -0.019290 6.249949 
4.097530 4.213240 -0.022520 
PRIMCOORD
36 1
Li	      0.08239      6.22306      6.23948        -0.003666     -0.060308      0.030539
Li	      2.12401      8.30608      6.21146         0.022043     -0.020393      0.010954
Li	      2.04596      6.23537      8.26776        -0.022606     -0.043109     -0.008374
Li	     10.20564      6.22158      8.25065         0.033277     -0.004329      0.015190
Li	      6.14748      6.25987      4.20690        -0.020441      0.027949     -0.019699
Li	      6.10803      4.24970      6.17157         0.022695      0.036939      0.023466
Li	      4.08711      8.46460      4.26076         0.031249      0.004787      0.034365
Li	      6.09114      8.41009      6.26409         0.019948     -0.007598     -0.036020
Li	      6.13007      6.33235      8.29669         0.035956     -0.025894     -0.008323
Mn	      4.11454      4.20696      4.13119        -0.159405      0.210597     -0.048999
Mn	      2.03442      6.28593      4.19087         0.150020     -0.201937     -0.108235
V	      6.15147      2.08766      4.20404         0.034893      0.000413     -0.220249
V	      8.03383      4.07953      8.21727        -0.235477      0.126175      0.292992
Fe	      4.18356      6.37696      6.29397        -0.292003      0.034934     -0.199037
Co	      4.10113      4.15520      8.27685         0.111521     -0.028055     -0.038684
Cu	      4.07525      6.26872     10.36196         0.016731     -0.009036     -0.028671
Cu	      8.08300      6.34135      6.23671         0.089141     -0.026359      0.052072
Ni	      4.11937      8.40321      8.23929        -0.072450      0.030515     -0.086178
O	      2.03257      2.32608      2.07017        -0.099485     -0.008958     -0.066334
O	      3.98150      4.21808      2.17174        -0.002801      0.002713     -0.007285
O	      4.12652      2.24873      4.02721         0.080722     -0.114177      0.070346
O	      6.09888      4.12676      4.11771         0.152284     -0.126773     -0.018131
O	      6.01860      2.11711      6.04302        -0.047878      0.002904      0.073024
O	      8.19771      4.29127      6.42931         0.015569      0.063264     -0.146058
O	      2.07466      4.31765      4.00738        -0.043809     -0.011206     -0.088743
O	      4.03438      6.17119      4.21110        -0.115609      0.012645     -0.007440
O	      4.07655      4.18602      6.12714         0.049202     -0.100292      0.029359
O	      6.13190      6.31008      6.21189         0.311339     -0.098809      0.000558
O	      6.25122      4.17398      8.34493         0.102901     -0.018557     -0.053090
O	      8.20193      6.22328      8.48305        -0.025949      0.012122      0.159891
O	      2.11413      6.28086      6.11474        -0.025434      0.001370      0.072494
O	      4.11212      8.31941      6.25415        -0.059671      0.177870     -0.183273
O	      4.08480      6.25118      8.27820        -0.051670     -0.035320      0.216755
O	      6.16131      8.38744      8.49286         0.122118     -0.019399      0.203810
O	      6.20791      6.36272     10.43214        -0.052806      0.149735      0.043113
O	      8.14110      8.23462     10.39363        -0.070448      0.065578      0.043895
