# total energy = -213.75317134 eV
 
CRYSTAL
PRIMVEC
0.012807 6.082849 6.202960 
6.532586 0.030190 6.184649 
4.415399 4.101802 -0.039167 
PRIMCOORD
36 1
Li	      6.68177     10.03593      8.27632        -0.039392      0.067556      0.013158
Li	      4.63642      8.10978      8.22229         0.016875      0.057654      0.028825
Li	      6.66362      8.16750     10.15869        -0.006779     -0.019074      0.056111
Li	      2.22900      4.09740      2.08259         0.028276      0.020518     -0.026952
Li	      4.34987      4.04486      4.02016        -0.045931      0.031543     -0.001734
Li	     10.89658      8.22463     10.34543         0.002492     -0.046364     -0.010145
Li	      6.47578      8.19631      6.24640        -0.034059     -0.011548     -0.043109
Li	      4.33773      6.18021      6.35315         0.033422     -0.039877      0.013705
Li	      8.62011      8.22745      8.36273        -0.002695     -0.055080     -0.034862
Mn	      4.39876     10.12615      6.13230        -0.047751      0.002715      0.147270
Mn	      6.61603      4.08864      6.11172        -0.048218     -0.082352      0.018893
V	      4.51300      6.13799      2.14401        -0.102321     -0.080038     -0.026400
V	      4.32135      2.20434      6.24005         0.084086      0.114306     -0.036598
Fe	      2.28714      2.15659      4.08783        -0.062225     -0.144470     -0.106731
Co	      8.77351     10.19911     10.27305         0.076864      0.034538     -0.003209
Cu	      2.35161      8.01814      6.15256         0.102488     -0.032188      0.186600
Cu	      8.68224      6.06963     10.24754         0.082957     -0.022158     -0.105089
Cu	      6.41511      6.21025      8.28398        -0.044168     -0.274344      0.074985
O	      6.60968      8.08278      8.23539         0.033070      0.057847     -0.003184
O	      1.95944      2.01925      1.96580        -0.007417      0.002241     -0.008049
O	      4.40091      4.25936      1.92499         0.010209      0.065215      0.117472
O	      4.28493      1.98941      4.18893         0.002794      0.039042      0.076605
O	      6.78665      4.20111      4.07693         0.084881     -0.021032     -0.043595
O	      6.36968      1.97684      6.28217        -0.119572     -0.054489     -0.004302
O	      8.82414      4.24369      6.09064        -0.018947      0.044664     -0.100730
O	      2.24179      4.04584      4.05921         0.012805      0.102800      0.008090
O	      4.57459      6.09269      3.93237         0.129995      0.037681      0.010714
O	      4.48090      3.97505      6.11460        -0.012607     -0.029633      0.031729
O	      6.76695      6.17093      6.10176         0.064566      0.088126      0.069454
O	      6.56209      3.92475      8.17777         0.028660      0.083550      0.057061
O	      8.94370      6.14887      8.20649         0.137974      0.061365     -0.126175
O	      1.94145      6.07339      6.01688        -0.086184      0.046277      0.054009
O	      4.37661      8.24533      6.22344         0.047887     -0.023948     -0.011228
O	      4.42422      6.09503      8.40123        -0.015808     -0.018331      0.087936
O	      6.29497      6.10560     10.43912        -0.228237      0.002650     -0.275120
O	      8.74624      8.19517     10.41973        -0.057989     -0.005360     -0.085405
