# total energy = -101.64564737 eV
 
CRYSTAL
PRIMVEC
0.000255 2.184641 2.158263 
5.643949 5.096508 -7.201463 
-3.792237 2.480927 -2.456631 
PRIMCOORD
16 1
Li	     -3.39557      2.44581     -2.36893         0.040989      0.030128     -0.029571
Li	     -2.04755      5.30056     -3.09042        -0.014850     -0.014541      0.016763
Li	     -0.20088      4.67189     -4.64084        -0.019306     -0.004447      0.009802
Li	     -0.23731      2.94924     -2.92572        -0.039037     -0.010971      0.014207
Ti	     -1.50401      2.17104      0.01077         0.726153      0.125419     -0.137257
Ti	      3.70115      4.87785     -5.02025        -0.184142     -0.167255      0.037432
Ni	      1.78471      7.32288     -5.06648        -0.068125     -0.023438      0.019152
Ni	      1.62729      4.61205     -2.44223         0.110612      0.077077     -0.089630
O	      3.57588      5.19149     -3.02298         0.022668      0.274438     -0.120136
O	     -0.23139      4.89740     -2.69771        -0.219301      0.030557     -0.031915
O	      1.86634      5.26913     -5.16218         0.216524     -0.133401      0.098530
O	      0.22077      1.91915      0.30207        -0.653415      0.073900     -0.085031
O	      1.76442      2.66384     -2.65622         0.026184     -0.148094      0.154366
O	      1.88576      7.24804     -7.15375        -0.027923      0.090563     -0.102672
O	     -1.60083      1.87860     -1.85051         0.001867     -0.158952      0.188121
O	      3.87985      7.26550     -4.87758         0.081101     -0.040982      0.057839
