# total energy = -216.69567462 eV
 
CRYSTAL
PRIMVEC
-0.003664 6.309668 6.111980 
6.328189 -0.004225 6.112342 
4.227772 4.215811 -0.012302 
PRIMCOORD
36 1
Li	      0.13600      6.33925      6.14166         0.011848     -0.002116     -0.074661
Li	      2.05146      8.30137      6.15078        -0.054766     -0.034560     -0.013540
Li	      2.11817      6.30868      8.04515         0.042235     -0.048277      0.062979
Li	      6.25508      2.12987      8.02718        -0.030201      0.042703     -0.022242
Li	      4.29830      2.15098      6.18139         0.010990      0.022964     -0.022010
Li	      6.29143      4.05795      6.18863        -0.013335     -0.084103     -0.022150
Li	      2.13277      6.32876      4.08596        -0.037997     -0.007543      0.002219
Li	      4.14342      6.34153      6.15540        -0.007129     -0.012572     -0.018098
Li	      4.26803      4.09853      8.08881         0.020338     -0.054210     -0.011593
Mn	      6.33595      2.06528      4.12686         0.040546     -0.060584      0.310063
Mn	      2.14651      2.14816      4.09721         0.000626     -0.050085      0.210674
V	      8.46075     10.44220     10.24278        -0.074357      0.042472      0.208638
V	      4.26418      4.31543      4.10222         0.136949      0.021248      0.250985
Fe	      8.40301      4.31831      8.02004         0.034878     -0.111778      0.005158
Co	      4.19745      8.38311      4.06013        -0.017651     -0.011761     -0.114318
Co	      2.06428      4.28112      6.12354        -0.015540      0.076186     -0.103550
Cu	      4.19347      8.40988      8.05710         0.051749     -0.032305     -0.039816
Ni	      6.34199      6.30027      8.08558        -0.014227     -0.056140     -0.066759
O	      2.22904      2.19228      2.12756         0.001347     -0.012305     -0.134050
O	      4.15269      4.18613      2.21099         0.053766      0.015924     -0.223951
O	      4.20918      2.10446      4.17741        -0.074115      0.025098     -0.085976
O	      6.30022      4.16597      4.09283        -0.017048      0.021998     -0.022370
O	      6.36706      2.06879      5.98828        -0.008012     -0.060661      0.003451
O	      8.40198      4.21375      5.98686        -0.009064     -0.022191      0.091609
O	      2.23003      4.23538      4.01375        -0.091890      0.096849     -0.100952
O	      4.39002      6.24460      4.02843        -0.037184     -0.000086     -0.093340
O	      4.17785      4.23225      5.93912        -0.117630      0.034875      0.074170
O	      6.30692      6.55691      6.02251         0.032524      0.184649      0.025572
O	      6.40132      4.23454      8.19000        -0.061273     -0.071871     -0.023069
O	      8.39775      6.23587      8.12057         0.149070      0.171304      0.015174
O	      2.11587      6.11823      6.12524         0.054509     -0.166670     -0.027153
O	      4.29808      8.42886      5.97507         0.131050      0.044745      0.234699
O	      4.20710      6.33632      8.38277        -0.117314      0.074097     -0.207807
O	      6.19034      8.35089      8.23155        -0.073813      0.119739     -0.081276
O	      6.18451      6.32709     10.18980         0.001862      0.007878      0.051119
O	      8.37419      8.51361     10.17559         0.098256     -0.102908     -0.037827
