# total energy = -215.98652159 eV
 
CRYSTAL
PRIMVEC
0.045099 6.283007 6.230794 
6.392492 -0.026911 6.303474 
4.213943 4.189457 0.029674 
PRIMCOORD
36 1
Li	     10.37897      4.23577      6.36930        -0.011728     -0.002115      0.029996
Li	      8.39154      2.17401      6.28219        -0.024384     -0.015099      0.018093
Li	      8.45874      4.13760      4.45142         0.006303      0.010435     -0.043292
Li	      6.43916      1.93020      8.15009         0.032046     -0.017073     -0.064806
Li	      8.52780      4.09553      8.21458        -0.020419     -0.036652     -0.047132
Li	      4.25999      4.19248      4.17891         0.061217      0.002452      0.004844
Li	      8.58044      5.97024      6.29081         0.000019     -0.025296     -0.015747
Li	      6.59334      4.04129      6.30089        -0.046168     -0.002070      0.030293
Li	      4.15429      8.34898      4.29686        -0.025358     -0.024194     -0.006314
Mn	      4.23443      2.20847      2.08987        -0.001691     -0.078622     -0.030047
Mn	      2.23783      4.30108      6.23371        -0.009640     -0.113272      0.053804
V	      6.33092      6.25294      4.19123         0.020086     -0.090871      0.165715
V	      6.46925      5.99286      8.39330        -0.426350      0.129823     -0.500256
Fe	      6.43465      2.14353      4.34769        -0.288710     -0.044526     -0.200004
Co	      2.15534      0.05779      2.09928         0.044169      0.036701      0.021209
Co	      4.30995      6.35096      6.32584         0.146157      0.019635      0.071240
Cu	      2.24564      6.23957      4.20684        -0.023807      0.115475     -0.178153
Cu	      8.49809      8.33778      8.38548         0.149739     -0.103174     -0.099452
O	      2.05379      1.98778      2.25211         0.035415      0.027881     -0.028569
O	      4.43557      4.11452      2.07042         0.007990      0.061455      0.066093
O	      4.09423      2.11892      4.09334         0.067902      0.015062      0.060598
O	      6.37074      4.20231      4.08847        -0.032960     -0.012571     -0.068166
O	      6.30590      2.07185      6.17846         0.034819     -0.048803      0.163267
O	      8.50481      4.07641      6.33298        -0.016121     -0.058804     -0.030401
O	      2.17973      4.07560      4.28546         0.041022      0.372976     -0.003174
O	      4.48775      6.27852      4.38690        -0.151210     -0.012653      0.113318
O	      4.17014      4.42091      6.38041        -0.080188      0.102513     -0.057108
O	      6.27670      6.25685      6.42100        -0.060463      0.028876     -0.105840
O	      6.27873      4.25510      8.41430         0.079689     -0.375082      0.056475
O	      8.20623      6.13070      8.32365         0.460629     -0.048812      0.188254
O	      2.39075      6.43856      6.40588        -0.042206      0.036148     -0.106762
O	      4.47932      8.32679      6.35143         0.056833      0.033991     -0.007699
O	      4.27582      6.51063      8.22958        -0.150425      0.091101     -0.078895
O	      6.46540      8.51295      8.32758        -0.142014      0.221030      0.073699
O	      6.21450      6.39408     10.11942         0.117882      0.070677      0.404948
O	      8.41528      8.24465     10.33687         0.191925     -0.266540      0.149970
