# total energy = -219.77685467 eV
 
CRYSTAL
PRIMVEC
-0.017536 6.111326 6.234887 
6.349534 -0.023293 6.240165 
4.213691 4.059250 0.003107 
PRIMCOORD
36 1
Li	      6.33959      0.02129      6.20026        -0.008490      0.040072      0.066238
Li	      2.10276      8.13394      6.22686        -0.036795      0.020678      0.022042
Li	      4.23878      8.05393      8.41306         0.015466      0.026939     -0.014276
Li	      4.24513      6.14577     10.30957        -0.010916      0.001092     -0.018663
Li	      4.22322      6.11678      2.13955         0.053968     -0.083806     -0.022294
Li	      6.28884      6.09337      4.15469        -0.048868     -0.013108     -0.035793
Li	      4.23976      4.02417      4.20401        -0.015570     -0.008721     -0.017085
Li	      4.30984      1.99680      6.16659         0.031901     -0.030278      0.041148
Li	      6.24359      6.06903      8.33390        -0.008085      0.049283     -0.043990
Mn	      6.27795      1.99200      4.16031         0.076315     -0.018663     -0.110943
Mn	      6.31453      4.05907      6.22665         0.046032     -0.026511      0.024822
V	      2.33482      4.03751      1.98496         0.076040     -0.005704      0.169056
V	      6.29006      8.07513      6.25102        -0.080383      0.020459     -0.005717
Fe	     10.48567      8.10689     10.36379         0.015240      0.209711     -0.117605
Co	      2.14765      0.10113      2.11845        -0.078006      0.132281     -0.039967
Co	      8.43518      6.09557     10.39852         0.014718     -0.182337     -0.002498
Co	      4.18394      6.09539      6.23822        -0.045844      0.007911      0.028652
Ni	      8.42106      8.11979      8.31165        -0.015499     -0.076428      0.027787
O	      2.10627      2.20433      2.13146        -0.008638     -0.099862      0.031481
O	      4.10553      4.08395      2.09530         0.051586      0.009875     -0.026714
O	      4.43955      1.99477      4.17479         0.026183      0.007504      0.022498
O	      6.35252      3.96153      4.23752        -0.037035      0.044558     -0.078974
O	      6.36885      2.11695      6.07861         0.004396      0.024806     -0.007917
O	      8.49316      4.04513      6.46062        -0.013573     -0.008383     -0.198223
O	      1.99511      4.04887      4.10860        -0.032848      0.020013     -0.073755
O	      4.16092      6.16208      4.27065        -0.141549     -0.127930      0.124468
O	      4.09369      4.12519      6.26786         0.044350      0.009858     -0.110240
O	      6.16919      6.03456      6.21980        -0.023289      0.075587     -0.004129
O	      6.33179      4.01574      8.27555         0.047352      0.012590     -0.011620
O	      8.44864      5.88235      8.34124        -0.018845      0.070466      0.012792
O	      2.21240      6.05199      6.27711        -0.068430     -0.117951      0.071607
O	      4.27806      8.06703      6.14741         0.026946     -0.064862      0.052293
O	      4.15944      6.09008      8.15971         0.037661      0.024654     -0.038821
O	      6.34574      8.15602      8.38999         0.029156      0.002511      0.169205
O	      6.33084      6.14230     10.41833         0.090684      0.024417      0.038132
O	      8.41518      8.16028     10.35180         0.004671      0.029277      0.077002
