# total energy = -222.58613940 eV
 
CRYSTAL
PRIMVEC
0.015019 6.194841 6.459281 
6.035416 0.028677 6.444199 
4.040813 4.137486 0.001723 
PRIMCOORD
36 1
Li	      2.02900      8.18218      6.50898        -0.001210      0.032896      0.065309
Li	      2.02522      6.24629      8.39794         0.012743      0.027386     -0.007402
Li	      6.06081      2.03647      4.38106        -0.007840     -0.018614      0.003033
Li	      6.07909      2.11174      8.53759         0.022460     -0.011261     -0.001116
Li	      6.01123      6.24180      4.41964        -0.007145      0.046882     -0.010941
Li	      4.06979      8.23617      4.47476         0.023420     -0.027052      0.059023
Li	      6.00584      8.30377      6.47833         0.000080      0.023136     -0.011604
Li	      4.02618      6.31365      6.42142        -0.016800      0.008702      0.011108
Li	      6.04398      6.18654      8.51075        -0.013950     -0.003689     -0.037595
Mn	      8.01661      4.17828      8.57994        -0.008203     -0.031530      0.039601
Mn	      2.01919      6.21723      4.40630         0.096836     -0.106373      0.057111
V	      4.10694      8.21335      8.55373        -0.078761     -0.057094      0.015709
V	      4.09523      4.15415      4.36255        -0.119583      0.039833      0.032928
Fe	      8.03122      8.30798      8.60177         0.038212      0.002483     -0.167588
Co	      0.07985      6.21962      6.44704        -0.054810      0.009413     -0.030413
Co	      4.09178      6.17672     10.73092        -0.001822      0.017566     -0.016671
Co	      8.03992      6.20790      6.42008         0.007860      0.016881     -0.045534
Co	      6.03909      4.15076      6.43031         0.018654     -0.017012      0.047305
O	      2.16446      2.19993      2.20508        -0.042856      0.057627     -0.018487
O	      3.98394      4.07577      2.31532        -0.019856      0.042632     -0.043555
O	      4.01917      2.16605      4.35630         0.034785     -0.138305     -0.033353
O	      5.95040      4.16487      4.44763         0.023832     -0.019398      0.030043
O	      5.94837      2.15970      6.42921        -0.072338      0.055358     -0.028579
O	      7.98984      4.26788      6.34043        -0.025479      0.023592      0.072553
O	      2.14865      4.20438      4.34161         0.071468      0.070943     -0.000004
O	      3.97185      6.12366      4.32447        -0.084355      0.029427      0.009826
O	      4.08530      4.03647      6.45522         0.027648     -0.058472     -0.012282
O	      6.13198      6.07946      6.42997         0.080103     -0.049478     -0.004291
O	      6.05789      4.13424      8.36856         0.051384     -0.011504     -0.092978
O	      8.05495      6.19437      8.40041         0.011510     -0.045542      0.022771
O	      2.02829      6.23426      6.46951        -0.007062      0.017209     -0.007620
O	      4.03450      8.31451      6.65881         0.049152     -0.029421      0.016907
O	      4.00578      6.21953      8.66227         0.002021      0.004858     -0.062742
O	      5.96787      8.28866      8.61251         0.075319     -0.003976      0.013092
O	      6.13314      6.16998     10.75525        -0.055254     -0.006550      0.046495
O	      8.11014      8.20952     10.53320        -0.030161      0.108443      0.089941
