# total energy = -212.52327610 eV
 
CRYSTAL
PRIMVEC
0.040007 6.157760 6.312061 
6.314895 0.016906 6.334864 
4.215473 4.125808 0.006109 
PRIMCOORD
36 1
Li	      6.42768     10.27539      8.48983        -0.001013     -0.024558      0.046779
Li	      4.21118      6.16831     10.46387         0.005302     -0.040641     -0.017468
Li	      8.48015      4.22678      8.44350        -0.002833      0.020425      0.011190
Li	      4.26501      4.11308      4.27785         0.008210      0.029418      0.011998
Li	      6.27676      4.15421      6.28867        -0.059242      0.040230      0.032196
Li	      8.47538      6.16990     10.40567         0.009875     -0.013664     -0.076823
Li	      4.27357      6.09074      6.43263         0.038910     -0.028814      0.044681
Li	      8.40266      8.20505      8.36842         0.003654     -0.003398     -0.001050
Li	      6.38687      6.24409      8.38033         0.023102     -0.018889      0.004954
Mn	      4.20506      2.00304      2.20090        -0.050860      0.019116     -0.064609
Mn	      2.18288      4.11252      6.35430        -0.134917      0.045362     -0.022032
V	      4.17607      4.13026      0.05657         0.094391     -0.066804     -0.021533
V	      6.31255      4.16825     10.27550        -0.028472      0.015203     -0.363345
Fe	      6.29499      6.05333      4.23785        -0.110974      0.219667     -0.090182
Cu	      6.35729      2.17779      4.20690         0.024200     -0.054356     -0.044804
Ni	      2.18542      8.17179      6.35307         0.053287     -0.034009     -0.007370
Ni	      4.17607      6.12663      2.11513         0.102835      0.084413      0.012755
Ni	      8.43243      6.23278      6.39396        -0.055529     -0.074783     -0.098312
O	      2.18594      2.05980      2.11346         0.076673     -0.010906      0.078696
O	      4.20464      4.07003      2.00420         0.032248     -0.132208     -0.005508
O	      4.07035      2.08879      4.10279        -0.029173     -0.005472      0.065732
O	      6.29373      4.15569      4.28228         0.008596     -0.085414      0.024177
O	      6.38783      2.01166      6.27238        -0.024495     -0.022855     -0.057812
O	      8.65159      4.11964      6.30824         0.048283      0.007411     -0.052279
O	      1.86412      4.04522      4.21544         0.072949     -0.012811      0.065770
O	      4.28442      6.31812      4.17130        -0.006372     -0.022562      0.081269
O	      4.06132      4.12987      6.31675         0.008426      0.179173     -0.042699
O	      6.38469      6.26800      6.24814        -0.104528      0.026234      0.063885
O	      6.30485      4.15095      8.52649         0.022613      0.086658      0.084788
O	      8.51922      6.20571      8.37615        -0.151378     -0.013918      0.144611
O	      1.96097      6.09034      6.30762         0.001812     -0.098878      0.030104
O	      4.32757      8.27039      6.47740         0.114643     -0.030534      0.125354
O	      4.25073      6.32845      8.43833        -0.009328      0.042231      0.033533
O	      6.18509      8.24974      8.56001        -0.010992      0.003562     -0.001032
O	      6.38593      6.00468     10.62851         0.008270     -0.001092      0.051426
O	      8.74494      8.20620     10.66932         0.021823     -0.022533     -0.047037
