# total energy = -212.10586095 eV
 
CRYSTAL
PRIMVEC
-0.022524 6.400273 6.366207 
6.075665 -0.043698 6.385219 
4.035357 4.262978 -0.012059 
PRIMCOORD
36 1
Li	      4.07563      4.12771      0.20500         0.009875      0.028868     -0.058267
Li	      2.11583      2.16912      0.15957        -0.117336      0.004470     -0.118163
Li	      5.95603      4.35051      2.18346         0.109091     -0.000317      0.015572
Li	      6.05169      8.48096     10.55871         0.068230     -0.018914      0.013343
Li	      2.09850      4.17806      2.10686        -0.095035      0.060930      0.025128
Li	      4.08758      4.20029      4.07806        -0.029074     -0.022087      0.067877
Li	      4.01152      8.50230      4.48893         0.011529      0.022782     -0.017442
Li	      4.01404      6.56401      6.37284         0.016655      0.042485      0.015847
Li	      4.00762      4.26372      8.44554         0.038328     -0.025863      0.053890
Mn	      6.01520      4.19994      6.34048         0.028853      0.009436     -0.118129
Mn	      6.04474      6.37258      8.44275         0.011495     -0.022315      0.164879
V	      8.05256     10.44836     10.58327         0.101131      0.167371      0.042381
V	      2.00239      6.26864      4.38136        -0.122859      0.267367     -0.165293
Fe	      4.08161      2.08594      6.30468        -0.128504     -0.057551      0.027796
Cu	      6.00043      6.35168      4.18714        -0.100451      0.075380      0.071700
Cu	      6.04131      8.56394      6.45126         0.170673      0.047090     -0.028928
Ni	      4.02434      6.32163      2.10144        -0.041056      0.032998     -0.029511
Ni	      4.02472      2.20269      2.10459         0.005775     -0.012134      0.120107
O	      4.11817      8.53113      6.44357        -0.099868      0.005412     -0.102423
O	      1.99202      2.15668      2.30134         0.051656      0.058555     -0.044308
O	      4.04789      4.26950      2.13316         0.017689     -0.023352      0.036873
O	      4.04805      1.86649      4.30104        -0.005870      0.026943     -0.050652
O	      6.14669      4.09614      4.37020        -0.121729     -0.146590     -0.000400
O	      6.02310      2.26330      6.47035         0.134709     -0.070304     -0.143787
O	      7.97604      4.27985      6.24601         0.075323     -0.020352      0.086794
O	      2.00027      4.51041      4.35901        -0.019168     -0.176733     -0.042155
O	      3.81281      6.52164      4.12904         0.150874      0.023918      0.100095
O	      4.06167      4.07726      6.25810        -0.042269      0.024163      0.013797
O	      6.03432      6.15115      6.18566        -0.038461     -0.077548     -0.139961
O	      6.03481      4.38111      8.22645         0.019722     -0.042742      0.000316
O	      8.01010      6.37716      8.52115        -0.132978     -0.019854     -0.066376
O	      2.02430      6.58196      6.09699         0.006297      0.110085      0.203008
O	      4.08881      6.39634      8.64456        -0.066891     -0.028440     -0.079775
O	      6.04508      8.33541      8.37493         0.144291     -0.035843      0.091559
O	      6.17773      6.41264     10.59558        -0.022685      0.010492      0.078753
O	      8.12931      8.67999     10.60351         0.012039     -0.217804     -0.024145
