# total energy = -212.80566225 eV
 
CRYSTAL
PRIMVEC
-0.017868 6.169358 6.172539 
6.479245 -0.022536 6.177785 
4.315451 4.111346 -0.011521 
PRIMCOORD
36 1
Li	      6.43984      0.12227      6.09776        -0.081771     -0.074685      0.025089
Li	      8.44133      1.96318      6.12651        -0.041503     -0.017139     -0.023689
Li	      4.31921      2.07762      2.16039         0.003273      0.045318     -0.005686
Li	      4.29303      0.07544      4.12966         0.055163     -0.014816     -0.011529
Li	      6.45692      2.04589      8.02008         0.031751     -0.050982     -0.092414
Li	      4.52255      2.03610      6.09118         0.030931      0.028993      0.036643
Li	      6.45311      3.94100      6.05565         0.043145      0.008983      0.055464
Li	      8.59693      6.10501     10.22388        -0.031341      0.028560     -0.043305
Li	      8.61431      8.19766      8.23544        -0.014560     -0.067966      0.048126
Mn	      4.32502      6.16178      6.24408         0.048253      0.083052      0.066880
Mn	      6.48371      6.14618      8.24811         0.118910      0.037538      0.034720
V	      8.65736      4.01480      8.02293        -0.009991      0.013795     -0.006919
V	     10.65809      8.17912     10.29630         0.144896      0.118947     -0.003887
Fe	      2.17308      4.16104      6.19800        -0.009822      0.020766      0.067698
Cu	      2.23026      0.04481      2.11496        -0.059542      0.146938     -0.119925
Cu	      6.43789      2.09396      4.14102        -0.013114     -0.174020     -0.100080
Cu	      4.34802      4.11230      4.11808         0.071921     -0.025798     -0.136509
Ni	      2.21220      2.04443      4.14729        -0.054400     -0.057977     -0.039457
O	      8.91021      8.10844     10.25903        -0.184607      0.026630      0.000045
O	      2.10657      2.18055      2.08267        -0.022515      0.007601      0.023565
O	      3.94648      4.18703      2.10895         0.035659      0.030317      0.034915
O	      4.20671      2.19644      4.14236        -0.021496     -0.305236      0.039558
O	      6.58793      4.13144      4.01746         0.099125      0.069780      0.086894
O	      6.48796      2.01174      6.03361        -0.058020      0.068838      0.195885
O	      8.61268      4.03100      6.30160        -0.025524      0.028416     -0.258785
O	      1.92496      4.09284      4.19261        -0.066245      0.090439     -0.004375
O	      4.35611      6.15001      4.30404         0.005492      0.104025      0.036807
O	      4.21301      4.24457      6.18435         0.037330     -0.153875      0.043865
O	      6.30644      6.20995      6.23481         0.051009     -0.061483      0.058821
O	      6.64294      4.00613      8.34723        -0.049929      0.012772     -0.046943
O	      8.43042      5.95093      8.19770         0.007272      0.070297      0.015820
O	      2.36472      6.14624      6.32512         0.002123      0.133758     -0.070904
O	      4.41629      8.12176      6.12203        -0.012308      0.047701      0.088848
O	      4.54588      6.16776      8.14549        -0.003751      0.007956     -0.007950
O	      6.50450      8.29093      8.25298        -0.021499     -0.187262      0.039230
O	      6.45894      6.04259     10.21964        -0.004315     -0.040182     -0.026516
