# total energy = -211.98197788 eV
 
CRYSTAL
PRIMVEC
0.014730 6.243633 6.391612 
6.208396 0.005350 6.402308 
4.144011 4.174142 -0.001762 
PRIMCOORD
36 1
Li	      8.33389      8.34380     12.69487         0.021236     -0.023544     -0.009278
Li	      4.16157      2.17824      2.22303         0.044544     -0.015314     -0.089844
Li	      4.26820      0.10968      4.33297         0.017715     -0.046516     -0.009922
Li	      6.17877      8.25883     10.66878         0.093787      0.020631      0.025692
Li	      2.16495      2.13672      4.26953        -0.085488      0.016269     -0.017388
Li	      6.16822      4.21756     10.62912        -0.026248     -0.002930     -0.052479
Li	      4.21131      6.25360      6.29328        -0.008557      0.017891     -0.041199
Li	      8.30937      8.30956      8.66670         0.016619      0.002470      0.041437
Li	      6.26144      6.21028      8.61146        -0.003441     -0.070893      0.029454
Mn	      6.13186      4.19548      6.44027        -0.212630      0.152392     -0.117340
Mn	      8.28318      6.32343     10.71240         0.121339      0.115973     -0.034825
V	      2.35224      6.24614      8.67275        -0.029155     -0.043085     -0.138053
V	      6.14340      8.34693      6.38696         0.054773      0.033530      0.146072
Fe	     10.28988      6.23470      8.54871         0.018755      0.236749     -0.067738
Cu	      6.17986      6.28335     12.70364         0.003809     -0.010482      0.138607
Cu	      8.26046      4.14861      8.47219        -0.138633     -0.072176     -0.053661
Cu	      4.12845      4.09855      4.22130         0.127673      0.142184     -0.034990
Cu	      4.07154      2.09119      6.30072         0.000533     -0.037436      0.055472
O	      6.35986      6.26444     10.76586        -0.083087     -0.038822     -0.014678
O	      8.32509      8.15609     10.73672        -0.009958      0.009403      0.007924
O	      1.96135      1.77918      2.00847         0.034166      0.019149     -0.056896
O	      4.00459      4.21375      1.86368         0.046804     -0.213645     -0.039081
O	      4.12748      2.19170      4.17078         0.037845     -0.082223     -0.054576
O	      6.18928      4.16075      4.04350        -0.100945     -0.012118     -0.026169
O	      6.02461      2.13568      6.46990         0.098074      0.099625     -0.040387
O	      8.03858      4.17462      6.38796         0.290160      0.041914     -0.210696
O	      2.11841      4.26031      4.39030         0.054614     -0.029958      0.049574
O	      4.06031      6.12128      4.16550         0.011248     -0.000801      0.098584
O	      4.16819      4.16850      6.52307        -0.253381     -0.052462     -0.020858
O	      6.25357      6.32216      6.41964        -0.070466     -0.319348     -0.002315
O	      6.32441      4.06831      8.52493        -0.061967      0.009504      0.395745
O	      8.28610      6.29775      8.80365        -0.100781      0.043447      0.074774
O	      2.23032      6.12651      6.35994         0.020443      0.161720     -0.045949
O	      4.36879      8.31767      6.38798        -0.093297     -0.084666     -0.006908
O	      4.06579      6.26477      8.61539         0.201008      0.083548      0.011530
O	      6.22706      8.60463      8.37412        -0.037112     -0.049978      0.110366
