# total energy = -212.65978358 eV
 
CRYSTAL
PRIMVEC
-0.014069 6.297864 6.205099 
6.229833 -0.010906 6.202046 
4.174085 4.217162 -0.027817 
PRIMCOORD
36 1
Li	      4.21191     10.45452      6.20324         0.029018     -0.062794     -0.013096
Li	      8.34564      4.21184      4.15846         0.018122     -0.038376      0.033773
Li	      4.05832      6.22513      2.13907        -0.107453     -0.063100      0.010768
Li	      4.10116      4.26733      4.15800        -0.001586     -0.005594     -0.008544
Li	      8.32931      6.34749      6.23981         0.014559      0.017267      0.027443
Li	      4.19617      8.37480      4.15358        -0.027355      0.006659      0.033898
Li	      2.14839      6.22120      4.14404        -0.016010      0.028386     -0.013432
Li	      2.14905      4.37420      6.07389        -0.011895      0.078986     -0.001527
Li	      4.18357      4.11601      8.20756         0.007182     -0.060890      0.032426
Mn	      6.20444      4.18491      6.18189         0.038387     -0.042019     -0.016324
Mn	      6.26290      6.28195      8.26325         0.126867      0.116383      0.034768
V	      4.16407      8.45463      8.21282         0.021883     -0.190048     -0.441158
V	      6.30365      8.35700     10.35694         0.304152      0.031962     -0.048359
Fe	      6.12760      6.44032      4.13901         0.049715     -0.134395     -0.085500
Ni	      2.05938      2.08508     -0.00844         0.054187      0.013983     -0.033925
Ni	      2.07212      6.29372      8.24793         0.008375     -0.029331      0.058932
Ni	      8.33480      4.25866      8.28112         0.007255     -0.033955     -0.070587
Ni	      4.09688      6.24963      6.13676        -0.051678      0.121010      0.001547
O	      2.18402      2.06627      2.14117         0.015238      0.052269      0.167773
O	      4.19318      4.08072      2.02865         0.049044      0.178153     -0.003513
O	      4.28381      2.09027      3.95069        -0.004710     -0.042126      0.086566
O	      6.25372      4.16574      4.20001         0.012927     -0.006336      0.097187
O	      6.19146      2.22510      6.11211        -0.084506      0.086432     -0.021679
O	      8.17412      4.12091      6.23360        -0.214970      0.095095     -0.107521
O	      2.07827      4.10924      4.12386         0.024694      0.110766      0.182035
O	      4.22274      6.34750      4.09791        -0.002620     -0.057112     -0.104763
O	      4.30459      4.20719      6.19329         0.126853     -0.056275     -0.013450
O	      6.24217      6.16758      6.19251         0.086282     -0.116820      0.114714
O	      6.22828      4.35592      8.15083        -0.089863      0.082021     -0.094736
O	      8.15902      6.29090      8.25972        -0.274184      0.053433     -0.009364
O	      2.08125      6.36290      6.25950        -0.068816     -0.121252     -0.106304
O	      4.13032      8.37684      6.33446         0.088878      0.134876      0.269751
O	      4.23385      6.40226      8.22661         0.213987     -0.041221      0.119546
O	      6.19518      8.32689      8.28666        -0.048989     -0.157186      0.099766
O	      6.19533      6.40575     10.18962         0.015611      0.045344     -0.092612
O	      8.10397      8.41920     10.31708        -0.308578      0.005804     -0.084498
