# total energy = -102.66203671 eV
 
CRYSTAL
PRIMVEC
0.000213 2.099807 2.099853 
8.458738 -4.264812 4.265785 
2.069974 4.204271 -2.104294 
PRIMCOORD
16 1
Li	      0.27492      2.06191      2.13680         0.009042     -0.013519      0.014961
Li	      2.16482      1.93839      0.16299        -0.005259      0.025201     -0.026127
Li	      1.96236      0.14021      1.96058        -0.049588     -0.004601      0.003784
Li	      6.31867     -0.09748      2.19863        -0.010645      0.002326     -0.002073
Ti	      6.23109      2.08382      0.01187        -0.295902      0.039726     -0.039365
Ti	      8.60556     -0.03030      4.23065         0.712071     -0.063233      0.061625
Ni	      4.07314      2.08509      2.11711         0.080296     -0.041122      0.036491
Ni	      8.39608      2.06388      2.13615         0.007169     -0.087225      0.087735
O	      6.30618      2.16007      2.04013        -0.033267      0.036607     -0.036217
O	      6.23255     -0.08970      4.29001        -0.012562      0.127711     -0.124952
O	      8.34141     -0.09290      2.19258        -0.012936     -0.087034      0.087743
O	      8.36198     -1.99594      4.09591         0.083697      0.104420     -0.105678
O	      1.92029      4.25823     -0.06006        -0.661945      0.005391     -0.001437
O	      2.14783      2.08186      2.11929        -0.168824      0.000735     -0.003964
O	      4.36493      2.01207      0.09035         0.330405      0.095044     -0.096515
O	      4.27008     -0.12571      2.22589         0.028247     -0.140426      0.143989
