# total energy = -218.99821828 eV
 
CRYSTAL
PRIMVEC
-0.032160 6.112169 6.195263 
6.464567 -0.023306 6.186948 
4.324118 4.083309 -0.029613 
PRIMCOORD
36 1
Li	     10.73891      4.08258      6.16672        -0.018754     -0.049957     -0.053856
Li	      4.30601      6.14276     10.27319         0.001881     -0.054344      0.016517
Li	      6.41813      1.96080      4.14208        -0.001950     -0.053332     -0.032707
Li	      8.44049      4.11630      8.23239        -0.025993     -0.064016     -0.021678
Li	      8.66783      6.10218      6.29749         0.000296     -0.035569     -0.069872
Li	      6.42447      4.07330      6.24991         0.023228      0.022668     -0.009776
Li	      6.55586      8.09090      6.21405         0.043217      0.008551      0.016891
Li	      4.45649      4.03847      8.20020         0.024193      0.094412      0.070233
Li	      6.49467      6.04811      8.17421        -0.024373      0.055802      0.051180
Mn	      6.44643     10.09655      8.21268        -0.015769     -0.045367     -0.021606
Mn	      2.19548      2.07550      4.17259         0.015817      0.045073      0.022707
V	      8.52749      2.18390      6.11621         0.025027      0.024373      0.006979
V	      8.46043      6.08704     10.22265         0.066281     -0.051570      0.110188
Fe	      4.38502      4.00070      4.19170        -0.068444      0.077357     -0.092462
Fe	      4.35719      6.08480      6.21123        -0.034424      0.026557      0.009747
Co	      4.29850      8.14769      8.21173         0.012787      0.055426      0.033953
Cu	      6.37880      4.08131     10.27302        -0.020508      0.194647      0.130774
Ni	      6.39831      2.06026      8.21419         0.059524     -0.131648      0.058427
O	      2.26455      1.93656      2.04920         0.001783      0.052200      0.010342
O	      4.50428      4.00812      2.07271        -0.058563     -0.051931      0.019256
O	      4.34982      2.04908      3.96300         0.030918     -0.109411      0.016037
O	      6.38343      4.24881      4.14240         0.070532     -0.042896      0.023958
O	      6.64407      1.99359      6.25299        -0.118957     -0.076629     -0.198257
O	      8.68871      3.93959      6.17393         0.018264      0.166265      0.022373
O	      2.34865      4.05284      4.08850         0.087833      0.054250      0.028462
O	      4.19335      6.13719      4.11375         0.020629     -0.125892      0.043998
O	      4.30402      4.10478      6.15100        -0.008891     -0.128668      0.100839
O	      6.33068      6.14763      6.07452         0.140296      0.057319      0.028305
O	      6.45830      4.03439      8.33774         0.026838      0.124543     -0.183553
O	      8.67728      6.10195      8.39643        -0.198834     -0.026979      0.021660
O	      2.23743      6.20616      6.02552        -0.027935     -0.105345     -0.137778
O	      4.12562      8.11135      6.21611        -0.003517      0.013565      0.060350
O	      4.14288      6.17462      8.18958         0.011463      0.032126      0.083835
O	      6.22689      8.21191      8.19297        -0.015249     -0.061244     -0.023330
O	      6.61005      5.99353     10.33365         0.001584      0.062806     -0.148906
O	      8.40860      8.06228     10.37216        -0.040232      0.046857      0.006768
