# total energy = -218.21912811 eV
 
CRYSTAL
PRIMVEC
0.006921 6.367671 6.149834 
6.303569 -0.020714 6.177248 
4.175270 4.236348 0.013341 
PRIMCOORD
36 1
Li	     10.39789      4.26645      6.18371        -0.091424      0.072041      0.039580
Li	      4.17775      0.07370      4.10559         0.006848      0.014793     -0.016442
Li	      6.18811      2.08913      4.16207        -0.029576     -0.064562      0.010566
Li	      8.44958      4.27048      8.17842         0.099968      0.078458      0.004824
Li	      4.26267      4.12201      4.17454        -0.006642     -0.048067     -0.031934
Li	      4.21109      2.12891      6.18428         0.047757     -0.022854      0.070552
Li	      4.26344      6.26928      6.18664         0.029755     -0.050853     -0.000217
Li	      4.22182      4.21662      8.16258         0.005336     -0.050123      0.037950
Li	      6.24583      6.38711      8.19386        -0.034023      0.039593      0.035147
Mn	      4.20030      8.48754      8.19456         0.033638      0.033693     -0.076109
Mn	      6.25555      4.26099      6.14724         0.016050     -0.024119     -0.020575
V	      6.31399      4.27789     10.23315         0.130727      0.127570     -0.102522
V	      8.37125      6.35070     10.28022        -0.067893     -0.067906     -0.242808
Fe	      8.30781      2.19150      6.16761        -0.053072      0.019135     -0.023697
Fe	      6.30676     10.53769      8.29052        -0.018107      0.047754     -0.217255
Co	      4.16361      6.31226      2.09768         0.035331     -0.015935     -0.082412
Cu	      6.32899      6.30201      4.15528        -0.018655     -0.131875      0.087385
Cu	      2.22454      4.14856      6.16892         0.146592     -0.100841      0.078315
O	      2.15604      2.06765      2.06212         0.065987      0.009057     -0.120812
O	      4.26222      4.13248      2.02663        -0.033673     -0.108719      0.017249
O	      4.14552      2.11109      3.91844         0.131415      0.009033     -0.033219
O	      6.28746      4.09955      4.03865        -0.028687     -0.052243      0.213987
O	      6.33015      2.15312      6.29804        -0.081426     -0.009232      0.033491
O	      8.22816      4.15297      6.19156         0.062799      0.035510     -0.014318
O	      1.99682      4.38616      4.24549         0.026886      0.020728     -0.196895
O	      4.18140      6.48284      4.06361        -0.089419     -0.024239      0.093385
O	      4.36590      4.21772      6.20249        -0.079858      0.009090     -0.057865
O	      6.34830      6.28478      6.10589        -0.036268      0.009418      0.197366
O	      6.31581      4.19117      8.41338         0.018830      0.100002      0.145049
O	      8.44626      6.32051      8.44992        -0.011596      0.005074      0.130252
O	      2.09820      6.46353      6.06093         0.055164      0.060918      0.018069
O	      4.03974      8.53218      6.12043        -0.022514     -0.031651     -0.081250
O	      4.12597      6.54743      8.16414        -0.019487     -0.005944     -0.018612
O	      6.15841      8.50965      8.09640        -0.065937     -0.007334      0.181710
O	      6.40254      6.24585     10.27765        -0.032756      0.119659     -0.030171
O	      8.47640      8.38072     10.32295        -0.092067      0.004970     -0.027763
