# total energy = -218.18618691 eV
 
CRYSTAL
PRIMVEC
-0.019440 6.149013 6.161312 
6.359810 -0.030392 6.172046 
4.240816 4.107072 -0.021386 
PRIMCOORD
36 1
Li	      6.37044      0.04308      6.13334        -0.011506     -0.014791     -0.001305
Li	      8.43475      1.99612      6.14693         0.003597      0.036118     -0.034973
Li	      6.27646      2.09621      8.04953         0.007258     -0.095124     -0.050325
Li	      6.27297      6.16478      4.19971        -0.051683     -0.072600     -0.015726
Li	      8.52768      6.18465      6.25633         0.086066     -0.010345     -0.025748
Li	      6.29815      4.11391      6.25465         0.045085     -0.003367     -0.046286
Li	      4.22479      8.18042      4.07101        -0.043025     -0.006107     -0.007111
Li	      4.29567      4.03508      8.18731        -0.030001      0.027476      0.023326
Li	      6.40207      6.04484      8.11332        -0.004043     -0.021908      0.043314
Mn	      8.36151      4.08498      8.25236        -0.057708     -0.006578     -0.095634
Mn	      4.21997      4.10132      4.18315         0.305415     -0.023358      0.005088
V	      2.11316      0.07460      1.99514         0.047442     -0.013086      0.262931
V	      8.54301      4.04956      4.25335        -0.109136      0.047485     -0.230449
Fe	      4.25052      8.18709      8.12342        -0.058601     -0.021913      0.050184
Fe	      6.41822      2.00361      4.24088         0.020196      0.120945     -0.175461
Co	      4.25244      6.13035      6.16245        -0.025741      0.029212      0.053413
Ni	      8.46484      6.14090     10.25571        -0.113180      0.201179      0.055955
Ni	      6.32610      8.13003      6.12465         0.021860      0.036900      0.065304
O	      2.23132      2.09337      2.02888        -0.175396      0.276376      0.022088
O	      4.21313      4.07856      2.16731        -0.342785      0.085548     -0.000427
O	      4.32993      2.04541      4.08610        -0.069715      0.153933     -0.089239
O	      6.51243      4.07316      3.99078        -0.154736      0.033580      0.044076
O	      6.38286      2.02042      6.09452        -0.012431      0.035226      0.126840
O	      8.48692      4.09677      6.02455        -0.005008      0.041303      0.523207
O	      2.06688      4.10601      4.01148        -0.033246     -0.177051     -0.164169
O	      4.17261      6.02676      4.25547         0.070348      0.001780      0.027446
O	      4.18267      4.15967      6.11277         0.029598      0.036641     -0.138895
O	      6.15168      6.16331      6.14180        -0.064110     -0.166750      0.059231
O	      6.54082      4.02115      8.21669         0.184869      0.041653      0.043391
O	      8.45955      5.96713      8.23554        -0.023010     -0.107127     -0.108344
O	      2.22302      6.11567      6.17233         0.080185      0.021896     -0.027283
O	      4.26507      8.08208      6.16973        -0.083707     -0.058626     -0.053645
O	      4.16359      6.18917      8.24910         0.160817     -0.044109     -0.120483
O	      6.26622      8.31904      8.20244         0.046279     -0.101928      0.116855
O	      6.21207      6.16858     10.25304         0.283311     -0.085939     -0.093589
O	      8.42670      8.26940     10.21047         0.076444     -0.196544     -0.043557
