# total energy = -223.76336967 eV
 
CRYSTAL
PRIMVEC
0.037970 6.378115 6.299949 
6.202286 0.005751 6.331750 
4.118266 4.256223 0.021152 
PRIMCOORD
36 1
Li	      4.23429     10.58468      6.40937        -0.009148      0.003813      0.064968
Li	      2.08540      2.06894      0.13754        -0.034589     -0.007247     -0.014897
Li	      3.99246      2.21623      2.01709         0.092974     -0.003098     -0.020733
Li	      0.10189      2.16947      2.08039        -0.022925     -0.061757     -0.026374
Li	      2.02506      4.01687      2.08527        -0.037795     -0.023874      0.008433
Li	      2.05294      2.14269      4.02159        -0.008672     -0.000014     -0.037857
Li	      6.18025      4.19279      6.44147         0.042789     -0.054282      0.024175
Li	      4.15727      8.46885      4.22491         0.023900     -0.016054      0.005779
Li	      8.30073      6.41368     10.54240         0.017603     -0.023677     -0.045022
Mn	      6.22906      8.47690     10.55523        -0.127317      0.046287      0.104993
Mn	      4.15105      2.16644      6.34637         0.099116     -0.083615      0.038693
V	      8.22435      4.18191      4.36229        -0.019765      0.123236      0.053369
V	      4.05724      4.38734      4.14362         0.012191      0.254689     -0.167613
Fe	      4.13965      6.50722      6.27221         0.035382     -0.001073     -0.056080
Fe	      6.26805      6.22320      8.45807         0.088159      0.150816      0.049302
Co	      2.05863      0.08915      2.11435        -0.097070      0.147335      0.063597
Co	      2.07197      4.32321      6.34467        -0.087752      0.069545     -0.070696
Co	      4.20410      4.25570      8.42692         0.239089     -0.112530      0.106664
O	      2.06565      1.99527      2.09421        -0.005602     -0.163323     -0.056291
O	      4.25365      4.26242      2.21108        -0.010381      0.025384      0.111026
O	      4.19219      2.09972      4.30556         0.018636      0.047042      0.112316
O	      6.16551      4.30679      4.11132         0.037110      0.031134     -0.152677
O	      6.06612      2.13076      6.20451        -0.051855     -0.046631     -0.082298
O	      8.19620      4.25347      6.13246         0.016747     -0.018399     -0.069890
O	      2.29001      4.22165      4.17131        -0.055530      0.035384     -0.037300
O	      4.11522      6.30514      4.27946         0.031431     -0.229635     -0.010565
O	      4.19389      4.40344      6.18890        -0.045016     -0.084873      0.089139
O	      6.25981      6.44814      6.44598         0.031621      0.084044     -0.007713
O	      6.18219      4.30584      8.43389         0.511639      0.051618     -0.098818
O	      8.24139      6.47919      8.32850        -0.098116     -0.549006     -0.142906
O	      2.15829      6.37388      6.46966        -0.030429     -0.091388      0.142023
O	      4.20054      8.41252      6.29068         0.063502      0.062312     -0.020571
O	      4.12753      6.35670      8.51674         0.086402      0.396723      0.112659
O	      6.31673      8.56424      8.55093        -0.705811      0.075117      0.115049
O	      6.10342      6.31607     10.43687        -0.004061      0.007124      0.045416
O	      8.17071      8.62712     10.60029         0.003545     -0.041128     -0.129299
