# total energy = -217.19748734 eV
 
CRYSTAL
PRIMVEC
0.028411 6.204028 6.406082 
6.261076 0.028953 6.405059 
4.156998 4.118474 0.036870 
PRIMCOORD
36 1
Li	      0.08676      6.14318      6.30102        -0.055505      0.106973      0.022343
Li	      8.26846      2.13211      6.41687        -0.063190      0.054578      0.086866
Li	      6.38385      8.25137     10.77596        -0.065389      0.023636      0.045270
Li	      6.28244      2.18748      8.47649         0.032519     -0.100476     -0.038530
Li	      2.10611      3.98685      2.05065         0.029399      0.050601     -0.083575
Li	      2.07916      2.10660      4.20248        -0.003011     -0.045351     -0.041283
Li	      6.25264      4.15113      6.46238        -0.006651     -0.016699     -0.047950
Li	      2.03189      6.30113      4.46664         0.068501      0.016817      0.043203
Li	      4.18126      6.24976      6.40678         0.010387     -0.040512      0.019764
Mn	      8.29949      4.14046      4.35377         0.005871     -0.043002      0.249128
Mn	      6.27596      8.24777      6.44007        -0.155237      0.112316     -0.175642
V	      4.14653      4.33067      4.24243        -0.001310     -0.022608     -0.110457
V	      4.31880      2.03289      6.37463         0.374552     -0.037487     -0.398869
Fe	      2.03816      0.13463      2.07868        -0.023036     -0.143743      0.068326
Fe	      6.33577      6.10638      8.62497        -0.100763      0.409089     -0.014233
Cu	      8.36617      8.17882      8.69079         0.010025      0.161866     -0.037268
Ni	      4.18685      8.25715      4.35605         0.070412     -0.095170      0.028707
Ni	      4.13299      2.08242      2.12157        -0.098924      0.109335      0.043262
O	      2.10777      2.03596      2.03542        -0.079555      0.073830      0.096494
O	      4.18298      4.08129      2.29346        -0.064423      0.153457      0.018735
O	      4.11962      2.06541      4.35007         0.023092     -0.091445     -0.098025
O	      6.08430      4.12792      4.15499         0.036014     -0.066034      0.084683
O	      6.08833      2.10036      6.40296        -0.177750      0.028879      0.044360
O	      8.27026      4.24182      6.29050         0.000812     -0.007691      0.102313
O	      2.14989      4.11566      4.47049         0.057574      0.000828      0.020638
O	      4.13358      6.09848      4.29668        -0.010044      0.082752      0.035339
O	      4.09930      4.06434      6.22985        -0.044243      0.125849     -0.002087
O	      6.35613      6.29482      6.53577        -0.043724     -0.005031     -0.015126
O	      6.16913      4.16894      8.63007         0.094896     -0.223860     -0.148546
O	      8.31048      6.18632      8.37065         0.037110     -0.118365      0.432654
O	      2.13996      6.05500      6.52066         0.032113     -0.086323     -0.113913
O	      4.38811      8.23880      6.45442         0.139860     -0.067953     -0.042960
O	      4.18755      6.23688      8.70863         0.086204     -0.273497     -0.025375
O	      6.34525      8.23955      8.42367         0.013884      0.016039     -0.112975
O	      6.36385      6.23263     10.57970        -0.052255      0.070746      0.030685
O	      8.39899      8.42897     10.84440        -0.078219     -0.112345      0.034041
