# total energy = -215.30366087 eV
 
CRYSTAL
PRIMVEC
0.027101 6.331692 6.466477 
6.127677 0.012702 6.480811 
4.073362 4.219474 0.020768 
PRIMCOORD
36 1
Li	      2.02379      2.03568      0.08554        -0.066990      0.018011      0.023710
Li	      4.01271      2.10007      2.29085         0.055088     -0.055371      0.018171
Li	      4.09465      0.03811      4.32817        -0.009567     -0.000836     -0.016929
Li	      2.01394      4.12380      2.24974         0.049551      0.036503      0.025602
Li	      2.10223      2.16802      4.23367        -0.060123      0.000927      0.028951
Li	      4.04525      4.17097      4.42227        -0.001769      0.027017     -0.030816
Li	      2.07876      4.23008      6.44887        -0.048784      0.039652     -0.018415
Li	      8.15465      8.44339      8.65794         0.000514      0.072931      0.045879
Li	      6.12708      6.39838      8.61206        -0.074337      0.017161     -0.018348
Mn	      4.07294      2.15736      6.48944        -0.124260     -0.234328      0.005151
Mn	      6.20463      4.17299      6.49060         0.346282     -0.097845      0.084998
V	      4.09224     10.33493      6.58500        -0.096309      0.140138      0.151591
V	      4.15004      6.26352      6.54455        -0.294072     -1.238920     -0.427877
Fe	      6.16027      8.50178     10.70535         0.019947      0.007455      0.192449
Fe	      8.17720      6.29617     10.65387         0.276362      0.085202      0.002456
Cu	      6.12845      4.26263      2.30188         0.335338     -0.084733      0.093907
Cu	      0.06164      2.15588      2.14995        -0.119593      0.117626      0.148310
Cu	      6.12691      4.25575     10.66508         0.019298     -0.062371      0.013899
O	      6.18484      4.14792      8.40115         0.005030     -0.086749     -0.003777
O	      1.97329      1.99043      2.23347         0.010360     -0.132107     -0.120631
O	      4.12214      4.28365      1.91668        -0.103390     -0.023172     -0.178316
O	      4.11284      2.15300      4.54570        -0.079988      0.009248      0.040472
O	      6.17728      4.15406      4.56072        -0.001737     -0.012252      0.003397
O	      6.06002      2.02914      6.32444         0.023061     -0.018652     -0.101550
O	      8.36483      4.17034      6.47036        -0.189286      0.000439     -0.000975
O	      1.98184      4.35457      4.23707         0.039584     -0.140099      0.017946
O	      4.03638      6.45937      4.64259         0.036773      0.247943     -0.561346
O	      4.09828      4.36790      6.48240        -0.229438      1.089498      0.063070
O	      6.12165      6.30931      6.54577        -0.044803      0.238346      0.036903
O	      8.25954      6.34903      8.55161        -0.002329      0.035385     -0.211454
O	      1.91696      6.33084      6.30007         0.490256      0.067202      0.003658
O	      4.11739      8.56254      6.57889        -0.020352     -0.479560     -0.003149
O	      4.04273      6.41848      8.35597        -0.034476      0.274353      0.974950
O	      6.08606      8.59936      8.80653         0.001529     -0.024310     -0.278745
O	      6.15205      6.34730     10.87027        -0.064681      0.107763     -0.033634
O	      8.20619      8.33926     10.70804        -0.042687      0.058507      0.030491
