# total energy = -222.19576094 eV
 
CRYSTAL
PRIMVEC
0.004464 6.290850 6.059555 
6.464556 -0.021106 6.086322 
4.308178 4.209553 -0.011750 
PRIMCOORD
36 1
Li	      2.31128      8.29740      6.00198        -0.025819      0.028627     -0.009525
Li	      4.25069      8.44180      7.93912        -0.097703      0.016071      0.032282
Li	      6.52737      2.07799      4.15462         0.066191      0.008140      0.003145
Li	      4.37489      2.08018      6.07667        -0.009347     -0.009440      0.033949
Li	      6.45226      4.09200      6.06992         0.037587     -0.047080      0.051189
Li	      4.27175      8.39987      4.13394        -0.010783      0.028804     -0.052319
Li	      2.22049      6.28023      4.16289         0.015017      0.003081     -0.045610
Li	      6.22161      8.46774      6.03819        -0.016100     -0.005456      0.020550
Li	      4.24341      6.55709      6.01454         0.008991     -0.011247      0.011790
Mn	      2.16311      6.27189      7.99996         0.094627      0.016536      0.091329
Mn	      6.47797      6.32739      8.04131         0.014608     -0.076707     -0.070946
V	      8.65453      4.23439      4.14539        -0.073035     -0.138906     -0.247696
V	      4.32856      4.16845      8.02423        -0.011707      0.013886      0.089214
Fe	      6.46616      2.05357      8.02277        -0.018344      0.128379      0.144610
Fe	      6.42994      6.31935      4.19045        -0.042042     -0.003711     -0.156870
Fe	      4.24866      4.16302      4.16081         0.073094     -0.052373      0.051096
Co	      8.57754      4.13493      8.07032         0.161750      0.012793      0.188701
Ni	      0.08170      6.23325      6.00173        -0.028159      0.042471     -0.015510
O	      2.04943      2.00898      2.09213        -0.007456     -0.106282     -0.024305
O	      4.22753      4.23133      2.09715        -0.412081     -0.069233      0.015134
O	      4.20439      2.05472      4.04390        -0.005115      0.042477     -0.008243
O	      6.53572      4.22760      3.96085        -0.060375      0.050342     -0.049028
O	      6.42499      1.97784      6.13996        -0.001585      0.040825     -0.134663
O	      8.60082      4.16615      5.92789        -0.001573     -0.024592      0.457841
O	      2.26504      4.11051      4.03888        -0.069571      0.027778     -0.490671
O	      4.39121      6.16392      4.03268        -0.002255     -0.051529     -0.000535
O	      4.41419      4.15895      6.16460        -0.027139     -0.002221     -0.051935
O	      6.48609      6.27539      6.11111        -0.002000      0.019908      0.163892
O	      6.42901      4.08920      8.10165         0.280046     -0.013728      0.022244
O	      8.57192      6.37547      8.14080        -0.028516      0.126071      0.017851
O	      2.14455      6.30355      6.12701         0.051539      0.003443     -0.003430
O	      4.28026      8.47927      6.03884         0.015715     -0.098573      0.009348
O	      4.41012      6.23346      8.16189         0.025549     -0.055836      0.034116
O	      6.67193      8.50002      8.04388         0.084370      0.056258     -0.030797
O	      6.31645      6.34633      9.99730         0.024663      0.043557     -0.040577
O	      8.64984      8.53132      9.92408        -0.003045      0.057467     -0.005622
