# total energy = -99.18068256 eV
 
CRYSTAL
PRIMVEC
-0.000099 2.077813 2.077920 
17.507776 0.000051 0.000295 
-0.000030 2.077793 -2.077900 
PRIMCOORD
16 1
Li	      0.34486      2.07739     -2.07714        -0.029930      0.000769     -0.001309
Li	      2.52527      2.07667      0.00093         0.022410      0.001409     -0.000741
Li	      4.15592      4.15438      0.00088        -0.012450      0.001996     -0.001220
Li	     11.01492      2.07588      0.00099        -0.026624     -0.000620      0.000543
Ti	      8.92602      4.15230      0.00130         0.179920      0.004526     -0.001223
Ti	     15.29827      2.07631      0.00120         0.929318      0.001447     -0.000744
Ni	      6.42916      2.07556      0.00107         0.099822      0.001286     -0.000463
Ni	     12.85618      4.15408      0.00104        -0.052979      0.001012     -0.000535
O	     13.06229      2.07639      0.00099         0.020182     -0.002545      0.001607
O	     15.01780      4.15412      0.00117         0.062327      0.000579     -0.000010
O	      8.87464      2.07497      0.00118         0.035924      0.000319     -0.000271
O	     10.80702      4.15353      0.00104        -0.317079     -0.003496      0.001059
O	      4.55042      2.07637      0.00096        -0.245563     -0.001722      0.000654
O	      6.95436      4.15349      0.00103         0.177687     -0.003123      0.000939
O	     17.04834      2.07656      0.00110        -0.870626      0.000150      0.000159
O	      2.18820      4.15451      0.00085         0.027661     -0.001987      0.001554
