# total energy = -225.34958064 eV
 
CRYSTAL
PRIMVEC
0.029382 6.309061 6.295163 
6.376583 0.032578 6.292302 
4.267780 4.221060 0.004691 
PRIMCOORD
36 1
Li	      8.48724      2.20487      6.24712        -0.020402      0.021083      0.012458
Li	      6.34670      2.16526      4.22246        -0.032475      0.045836     -0.021691
Li	     10.61401      6.37714      8.44683         0.001252     -0.025030      0.044070
Li	      2.13230      4.23877      2.13862         0.046226     -0.019114      0.023655
Li	      2.15240      2.13885      4.22345         0.030482     -0.038063     -0.045890
Li	      4.21261      4.22344      4.22181        -0.025505     -0.004223     -0.047385
Li	      4.25926      2.11709      6.23173         0.012261     -0.020263      0.000604
Li	      6.40454      4.20397      6.29397        -0.005656     -0.029053      0.000019
Li	      2.22836      6.25538      4.16087         0.079227     -0.064245     -0.024720
Mn	      8.46233      4.26236      4.24619        -0.103710      0.070177      0.045082
Mn	      4.27260      6.32638      6.22230         0.023908     -0.025984     -0.021411
V	      6.31323      0.18758      6.28636        -0.095662      0.243968      0.189316
V	      2.05490      0.13559      2.13538        -0.057129      0.284184      0.178343
Fe	      2.17589      4.18395      6.15968         0.053353     -0.027716      0.104860
Fe	      8.59431      8.36515      8.41424        -0.039416      0.052380     -0.056306
Fe	      6.51721      6.29642      8.39274        -0.100506      0.070312      0.053916
Co	      4.24529      2.16016      2.17895         0.025496     -0.076483     -0.036279
Co	      0.06684      4.15415      4.17411         0.056242     -0.062178     -0.071498
O	      2.15335      1.91482      2.07605        -0.043797     -0.161625     -0.011354
O	      4.38249      4.24127      2.02704         0.004824     -0.154296      0.031686
O	      4.24421      1.96530      4.15573        -0.021722      0.064985     -0.544551
O	      6.48244      4.19713      4.05490         0.047109     -0.018279      0.029407
O	      6.42950      1.95044      6.28186        -0.006247     -0.125013     -0.028027
O	      8.70046      4.19830      6.34887        -0.005009      0.012190      0.002553
O	      2.11933      4.20367      4.25048        -0.037528      0.038630     -0.063767
O	      4.25044      6.35429      4.35620        -0.000295     -0.009741     -0.007903
O	      4.20172      4.27117      6.34357         0.019472      0.029429     -0.017825
O	      6.37567      6.40650      6.41238         0.014686     -0.035469     -0.072234
O	      6.32969      4.30851      8.35235         0.031463     -0.012342     -0.018449
O	      8.44442      6.42020      8.44091         0.105537     -0.061281      0.014250
O	      2.05913      6.24831      6.39642         0.036757     -0.002400     -0.087878
O	      4.38008      8.50268      6.37094        -0.120273      0.005091      0.449850
O	      4.22170      6.27977      8.24149         0.090351      0.080807     -0.019828
O	      6.47046      8.48743      8.35161         0.057102     -0.047941     -0.004997
O	      6.27565      6.32116     10.51167        -0.001656      0.028062     -0.052784
O	      8.57684      8.60239     10.39696        -0.018759     -0.026393      0.074708
