# total energy = -220.74355240 eV
 
CRYSTAL
PRIMVEC
0.025262 6.180169 6.457891 
6.230852 0.023440 6.458411 
4.162713 4.128990 0.007367 
PRIMCOORD
36 1
Li	      4.12603      4.06377      0.04438        -0.075452     -0.050321      0.037012
Li	      8.34306      8.30827     12.87017         0.010374     -0.017810     -0.028534
Li	      4.09632      2.10310      2.16187        -0.022065     -0.015518     -0.036762
Li	      2.13749      4.03790      2.21604         0.038841      0.025171      0.042200
Li	      2.09867      2.17413      4.20580        -0.003184     -0.038016     -0.038757
Li	      6.24254      4.15379     10.75131        -0.023915     -0.017607      0.046754
Li	      2.10560      6.13443      4.41128        -0.010778     -0.006469      0.070231
Li	      2.08768      4.16411      6.33639        -0.003366     -0.031139     -0.091535
Li	      8.35066      8.29070      8.71483         0.004908     -0.028138      0.063217
Mn	      4.07864      4.10056      4.27894        -0.086006      0.023697      0.010949
Mn	      6.27888      4.15182      6.48643        -0.031630      0.024564     -0.005962
V	      4.15069      6.32801      6.45018        -0.052822     -0.308155      0.018410
V	      6.36311      6.18721      8.68326        -0.058878     -0.064643     -0.051936
Fe	      2.06520      6.17481      8.53559         0.093716     -0.048503     -0.051153
Fe	      6.34131      8.20938     10.76263        -0.113476      0.055738      0.143601
Fe	      0.08326      2.11717      2.22615        -0.170337     -0.001209     -0.048058
Ni	      8.28546      4.13789      4.32714         0.027778     -0.014717     -0.082817
Ni	      4.14480      2.09736      6.44161        -0.015380      0.079537      0.062690
O	      2.01445      1.98644      2.16024         0.119740      0.083728     -0.034599
O	      4.20793      4.23461      2.07737        -0.073168     -0.076607      0.002184
O	      4.21135      2.09221      4.37616         0.001874      0.117913     -0.119374
O	      6.15558      4.06610      4.17178        -0.038916      0.099744      0.026876
O	      6.18364      2.18694      6.51912         0.125132     -0.026388     -0.039903
O	      8.19629      4.19258      6.37381         0.033660     -0.067773      0.119190
O	      2.23469      4.10268      4.32444         0.013415      0.015005     -0.030699
O	      4.14569      6.12293      4.32746         0.061710      0.012005      0.018541
O	      4.31977      4.24998      6.45955         0.041778      0.016095      0.039811
O	      6.20908      6.12842      6.61343        -0.039784      0.039343      0.058140
O	      6.24923      4.15544      8.68578        -0.030197      0.010443     -0.016853
O	      8.17459      6.21488      8.55202         0.146612     -0.000642      0.062992
O	      2.23655      6.11379      6.57662        -0.015387      0.062721     -0.111065
O	      4.21380      8.07221      6.40313         0.034917      0.276882     -0.011320
O	      4.25668      6.20336      8.50194        -0.050220     -0.000995     -0.013477
O	      6.23383      8.18963      8.70823        -0.005829      0.077660     -0.042494
O	      6.21166      6.21950     10.62571         0.025714     -0.056322      0.050642
O	      8.22980      8.30376     10.79581         0.140620     -0.149274     -0.018144
