# total energy = -225.76185086 eV
 
CRYSTAL
PRIMVEC
0.000900 6.507794 6.229456 
6.369448 -0.035912 6.266390 
4.218002 4.335518 0.004055 
PRIMCOORD
36 1
Li	      6.33793      6.62161      4.42813        -0.012691      0.051859     -0.080958
Li	      8.21752      6.61060      6.25320        -0.004158      0.016644      0.032259
Li	      6.21399      4.60878      6.23778        -0.007162      0.080685      0.012462
Li	      0.14790      4.32542      4.21807         0.037480     -0.015961      0.003141
Li	      2.11679      6.38307      4.20022         0.037862     -0.051115     -0.053426
Li	      6.42363      8.41744      6.20657        -0.044174      0.017654      0.029247
Li	      4.44158      6.36800      6.28483        -0.048791      0.002662     -0.000836
Li	      4.17048      4.37882      8.15511         0.003386      0.005446     -0.009174
Li	      6.32205      6.53338      8.14794        -0.005824      0.021055      0.093458
Mn	      4.25017      8.59186      8.29375        -0.007832     -0.125205     -0.033469
Mn	      4.18878      4.34397      4.25188         0.024712     -0.000943      0.272293
V	      6.37095     10.78698      8.31004         0.085226     -0.167945     -0.140223
V	      6.25526      2.37267      8.40481        -0.144103     -0.280304      0.086559
Fe	      0.02645      6.46585      6.19069         0.134931     -0.043649      0.077765
Fe	      2.14589      8.63133      6.18774         0.060684     -0.001368      0.054767
Fe	      8.45658      4.31080      4.22298        -0.089827     -0.073573     -0.018579
Fe	      6.35135      8.61755     10.40729         0.062257     -0.006663      0.029659
Co	      2.12259      4.34442      2.10312        -0.295415     -0.094171     -0.417839
O	      6.31768      6.49891      6.30161         0.024638      0.004370     -0.040318
O	      1.98060      2.08045      1.98979        -0.130040     -0.272250      0.199844
O	      4.27834      4.39514      2.14273         0.076948      0.036053     -0.025963
O	      4.33355      2.00257      4.21523        -0.081657      0.044572      0.043535
O	      6.29190      4.19594      4.16319        -0.043603      0.108078     -0.002858
O	      6.44586      1.98927      6.35827        -0.005447      0.019217      0.070639
O	      8.55925      4.18568      6.31401         0.012003      0.000150     -0.309562
O	      2.25141      4.33372      4.02782         0.085682      0.056281      0.664193
O	      4.26653      6.53824      3.90849        -0.013982      0.084056     -0.152468
O	      4.20256      4.35946      6.10092        -0.001363     -0.019107     -0.139100
O	      6.39430      4.12284      8.29952        -0.006418      0.100783      0.025189
O	      8.72688      6.42681      8.29273         0.199545      0.388640      0.015450
O	      2.03978      6.59353      6.27099         0.047938     -0.019936      0.120568
O	      4.14101      8.80448      6.20064         0.101303     -0.044910     -0.023269
O	      4.13417      6.46570      8.45264        -0.019747     -0.017789     -0.082320
O	      6.37637      8.75896      8.42402        -0.036184      0.143360     -0.114557
O	      6.30377      6.55739     10.46554         0.003998      0.010757     -0.077648
O	      8.35833      8.76669     10.49407        -0.000176      0.042564     -0.108459
