# total energy = -224.09471979 eV
 
CRYSTAL
PRIMVEC
0.008902 6.319221 6.335740 
6.317719 -0.033521 6.378253 
4.204640 4.233682 -0.015135 
PRIMCOORD
36 1
Li	     10.36739      4.20720      6.37663         0.016819     -0.023394     -0.067656
Li	      8.38679      2.18358      6.36665        -0.019045     -0.058656     -0.050609
Li	      4.25265      0.23403      4.32995        -0.023306     -0.028086      0.030593
Li	      6.12204      2.09234      4.29837         0.050810      0.047569      0.018570
Li	      2.33938      2.11981      4.26325        -0.017242     -0.042986      0.043680
Li	      4.15150      4.01929      4.30549         0.022742      0.061424      0.072355
Li	      4.21729      2.06292      6.10807        -0.008734      0.046163     -0.050934
Li	      6.33487      8.36317      6.33984        -0.001984      0.013087     -0.013707
Li	      6.34100      6.34649      8.41939         0.031121     -0.023520     -0.020429
Mn	      6.36719      4.21858      6.30925        -0.017481      0.010790     -0.124749
Mn	      8.35868      8.40095      8.43403        -0.050031     -0.015065     -0.022997
V	      6.28998      4.21747      2.31551         0.030419     -0.012248      0.303030
V	      8.30207      6.31864     10.73927        -0.041290     -0.005159     -0.178690
Fe	      6.33105      2.03961      8.41312        -0.019263      0.040593      0.157715
Fe	      2.12822      4.19992      2.06011         0.144828     -0.076662     -0.023197
Fe	      4.23761      8.40182      4.30451        -0.079247      0.085324     -0.073830
Fe	      4.32949      6.30909      6.32012        -0.085419     -0.009130     -0.055468
Ni	      4.21683      2.12333      2.15334        -0.008305     -0.071154     -0.152063
O	      2.04281      1.98488      2.10245        -0.006691     -0.099361     -0.002868
O	      4.32474      4.28562      2.01079         0.080209     -0.004650      0.013371
O	      4.23049      2.11473      4.14815        -0.052381     -0.007760      0.089428
O	      6.35874      4.20077      4.06473         0.029938     -0.011432     -0.124448
O	      6.28584      2.25253      6.47607        -0.045090     -0.021076     -0.089026
O	      8.30659      4.20768      6.40236         0.014622      0.016886     -0.112573
O	      2.06273      4.37150      4.20050         0.046260     -0.060050      0.067269
O	      4.09444      6.37311      4.24674         0.039412     -0.094660     -0.064621
O	      4.39055      4.29821      6.32084        -0.084904     -0.067211     -0.062493
O	      6.28984      6.20028      6.35261         0.091872      0.029083      0.017794
O	      6.30779      4.10048      8.66239        -0.104600      0.038564     -0.010933
O	      8.50138      6.25639      8.74288        -0.020810      0.194669      0.056444
O	      2.19079      6.28138      6.16031        -0.000807     -0.037134      0.154403
O	      4.21687      8.32976      6.24815         0.022821      0.060559      0.155566
O	      4.06520      6.36046      8.33508         0.017288     -0.006785     -0.001277
O	      6.27172      8.60594      8.36090         0.160282     -0.012391      0.003487
O	      6.48047      6.22906     10.64706        -0.084911      0.035322      0.015063
O	      8.46105      8.16353     10.60399        -0.027901      0.108538      0.103801
