# total energy = -228.14719279 eV
 
CRYSTAL
PRIMVEC
-0.002290 6.282166 6.432183 
6.299894 0.033695 6.397069 
4.229753 4.194346 -0.007453 
PRIMCOORD
36 1
Li	      0.09395      6.19583      6.40324         0.048024     -0.035271     -0.032209
Li	      6.23761     10.40065      8.52270        -0.031986     -0.048074     -0.049118
Li	      4.25842      8.37608      8.50554         0.013320     -0.000178     -0.029921
Li	      4.18920      6.31929      2.24813        -0.026430      0.022103     -0.007239
Li	      4.13698      4.28543      4.23884        -0.012198      0.009521     -0.006148
Li	      4.25812      8.34024      4.33271        -0.009904      0.046219     -0.009207
Li	      2.16974      6.22742      4.31129         0.027506     -0.018552      0.004004
Li	      6.26299      8.47709      6.44375        -0.003438      0.029938      0.057457
Li	      8.39507      8.40444      8.56568         0.016470      0.027857      0.010094
Mn	      4.16570      6.29236      6.37875        -0.145891      0.108552      0.104557
Mn	      6.36710      6.33603      8.59044        -0.186184     -0.043021      0.027715
V	      4.23863      6.29073     10.66375         0.063537     -0.065047      0.004917
V	      2.27411      4.19463      2.15501        -0.084664      0.029872      0.032958
Fe	      2.14309      8.29353      6.46831         0.036765     -0.098204      0.077064
Fe	      6.33550      8.36742     10.65462        -0.033924      0.002380      0.004964
Fe	      6.20095      6.31544      4.17745         0.092488      0.071241     -0.062948
Fe	      4.21036      2.22208      6.41277        -0.102033     -0.046741      0.040623
Fe	      6.25632      4.19667      6.40976        -0.016314      0.160985      0.011509
O	      2.07959      2.20940      2.12806        -0.008134     -0.054527     -0.003991
O	      4.03437      4.21538      2.05106         0.133779     -0.022788     -0.031075
O	      4.17640      2.01472      4.37112         0.023015      0.169350     -0.090745
O	      6.35720      4.22699      4.30229        -0.055165     -0.077918     -0.025123
O	      6.36521      2.20355      6.31458         0.003092     -0.014437      0.006909
O	      8.35195      4.16551      6.39938         0.012006     -0.044597      0.050713
O	      2.11128      4.12022      4.07650         0.017136      0.054503     -0.001984
O	      4.28721      6.29225      4.22564        -0.108805      0.005477     -0.060458
O	      4.25637      4.33626      6.42707         0.047368     -0.040169      0.022320
O	      6.21003      6.29431      6.29099         0.029651     -0.045332     -0.062200
O	      6.46781      4.34805      8.40307         0.072527      0.027132     -0.003445
O	      8.37299      6.25850      8.45111        -0.053804      0.010077      0.110279
O	      2.19865      6.32235      6.49453        -0.028780     -0.058465     -0.012819
O	      4.12514      8.23494      6.45363         0.105914      0.060860     -0.006797
O	      4.37340      6.26009      8.75947         0.081712      0.029730     -0.196830
O	      6.33162      8.30603      8.67660        -0.005465     -0.013989      0.067888
O	      6.27994      6.37803     10.75721         0.073149     -0.050042      0.094920
O	      8.35754      8.49865     10.82152         0.015661     -0.088446     -0.036636
