# total energy = -213.42802220 eV
 
CRYSTAL
PRIMVEC
-0.068899 6.839594 5.985911 
6.140903 -0.057216 5.967927 
4.067318 4.520929 -0.008639 
PRIMCOORD
36 1
Li	      4.07018     11.09836      6.03028         0.027983      0.043108     -0.013165
Li	      2.00130      8.98735      6.02113        -0.072848     -0.020042      0.018904
Li	      1.96262      0.11820      1.84980         0.076360      0.031279     -0.027193
Li	      6.07429      2.10422      7.81216        -0.001781     -0.113243     -0.018692
Li	      4.15033      2.28750      5.99436         0.011110      0.057410      0.057623
Li	      4.00849      9.22209      4.13560        -0.013687      0.062267     -0.072517
Li	      5.95057      9.24443      6.03735         0.048922     -0.011798     -0.012772
Li	      3.93219      7.00444      6.06365         0.007120      0.012734     -0.027876
Li	      4.06110      4.51477      7.90065        -0.013987      0.006970     -0.011032
Mn	      6.05944      9.00730      9.99424        -0.039418     -0.063373      0.219221
Mn	      4.04080      4.54763      3.97346        -0.005374      0.112137      0.122543
Mn	      2.02543      6.93792      4.07594         0.028535      0.003203     -0.127413
V	      6.02598      6.81715      4.00015        -0.033895     -0.004669      0.076171
V	      6.09965      6.77393      7.88141         0.043475      0.072828      0.015422
Cu	      4.01873      9.12155      7.88703        -0.109995     -0.045591      0.044730
Cu	      8.16362     11.03641     10.01115         0.032606      0.078299      0.045346
Cu	      8.16351      4.51269      7.87805         0.044215      0.059109      0.008686
Cu	      6.09650      4.41614      5.95802        -0.113576     -0.059411      0.047992
O	      1.99734      6.77865      5.91257         0.020842     -0.024553      0.091988
O	      3.98237      9.05942      6.02390         0.006167      0.002469      0.028446
O	      2.05182      2.16688      2.19822         0.083878     -0.048222     -0.091032
O	      3.95630      4.62874      2.05315        -0.034626      0.019386     -0.038517
O	      4.09643      2.54982      3.90544         0.049410      0.007873     -0.093441
O	      5.98597      4.70083      3.96013         0.028263      0.039353     -0.039082
O	      6.10491      2.30040      5.87205         0.004852     -0.185495     -0.056166
O	      7.99174      4.51621      5.89104         0.057425     -0.092980      0.122307
O	      2.10026      4.34142      3.96911        -0.126009      0.008910     -0.049606
O	      4.03889      6.55069      3.99414        -0.000347      0.048528     -0.012286
O	      4.20685      4.45753      5.87041        -0.106547     -0.028366     -0.013594
O	      6.12499      6.82699      5.89688        -0.002115      0.135427     -0.047675
O	      6.22331      4.73409      7.88776         0.068972     -0.033081      0.069498
O	      8.01017      6.89254      8.05777        -0.011276      0.104738      0.009306
O	      4.26911      6.62129      8.08206        -0.028268     -0.052899     -0.183286
O	      6.01104      8.81241      8.04231        -0.024111      0.050829     -0.091736
O	      6.20571      6.76240      9.93031         0.031710     -0.060255      0.044983
O	      8.00084      9.00403      9.96150         0.066016     -0.112879      0.003916
