# total energy = -208.75904275 eV
 
CRYSTAL
PRIMVEC
-0.041233 6.286929 6.182482 
6.191719 -0.044745 6.185067 
4.109330 4.174401 -0.011004 
PRIMCOORD
36 1
Li	      4.19738      8.17724      8.27958         0.058019     -0.033083     -0.063474
Li	      4.14275      6.19614     10.20198        -0.048939     -0.007562     -0.061281
Li	      8.17072      4.22496      8.22407        -0.027097     -0.023658     -0.001873
Li	      8.17380      6.28274      6.24460         0.021316      0.022765      0.081346
Li	      6.07867      4.24124      6.22958         0.002870     -0.147659      0.053734
Li	      8.13859      6.33268     10.24122        -0.026172      0.073727      0.000295
Li	      4.18738      6.15441      6.33224        -0.089057     -0.043658     -0.003333
Li	      4.10548      4.21346      8.23186        -0.068896      0.014853     -0.012027
Li	      6.05836      6.27134      8.18274         0.021362      0.068908      0.042711
Mn	      6.17603     -0.00822      6.19571        -0.057337     -0.193424      0.336764
Mn	      2.07459      2.11640      0.00881         0.090572      0.049143      0.305560
Mn	     10.18834      6.24271      8.27740        -0.011076      0.073561     -0.250670
Mn	      6.22353      6.19884      4.12257        -0.071429     -0.014339     -0.257797
Co	      4.09777      4.15045      4.11825        -0.023130     -0.089169     -0.037300
Co	      6.20731      8.26941      6.16592        -0.260109     -0.143476     -0.039779
Cu	      6.15644      8.32697     10.20533        -0.098478      0.141910      0.000005
Cu	      6.09436      4.22448     10.22404         0.276348      0.011834      0.313098
Ni	      2.12464      6.21863      8.23811         0.102843      0.013799      0.002758
O	      4.09157      6.26367      8.24239         0.216569     -0.007625     -0.041098
O	      6.12598      6.37488     10.47750         0.121205      0.130394     -0.279910
O	      1.95724      2.04800      2.10524        -0.040446      0.130037     -0.017462
O	      4.15443      4.29173      2.04204        -0.237680      0.063703     -0.306949
O	      4.04733      2.22882      4.09669         0.205565     -0.381443     -0.148846
O	      6.04957      4.21313      4.10777         0.739549     -0.083617      0.180131
O	      6.10665      1.93991      6.35669        -0.013691      0.004306      0.192841
O	      8.38618      3.97665      6.22980         0.078441      0.080152     -0.025187
O	      2.12662      3.98025      4.18195        -0.711179      0.150353      0.251407
O	      4.23165      6.13652      4.03014        -0.149792      0.021538      0.079334
O	      3.96175      4.20378      6.00095        -0.082116     -0.091576      0.606530
O	      6.16032      6.20414      6.01377         0.087479      1.082263      0.077524
O	      6.15566      3.97154      8.32275        -0.043599     -0.018457     -0.081852
O	      8.36005      6.20595      8.29753        -0.026071     -0.021618      0.093534
O	      1.89537      6.43841      6.19580         0.104553     -0.505350     -0.267966
O	      4.24056      8.55483      6.04722        -0.056786     -0.035737     -0.067099
O	      6.18126      8.38156      8.05954        -0.060914     -0.216012     -0.480377
O	      8.13591      8.36115     10.44416         0.077305     -0.075786     -0.173293
