# total energy = -208.67368596 eV
 
CRYSTAL
PRIMVEC
0.028675 5.983678 6.233158 
6.454456 -0.006463 6.269198 
4.295711 4.005597 0.003357 
PRIMCOORD
36 1
Li	      2.24006      6.00559      8.25028         0.039486     -0.006273      0.026023
Li	      4.25524      7.96179      8.25432         0.000004     -0.096259      0.135659
Li	      4.33682      6.02698      2.20181         0.003004     -0.039795     -0.028703
Li	      6.35165      6.02827      4.26888         0.136269     -0.063084     -0.035368
Li	      8.44526      6.01015      6.30635         0.040795      0.019621     -0.119570
Li	      2.31325      5.99052      4.20576         0.080593     -0.078836     -0.008860
Li	      6.45065      7.92048      6.28559         0.039919      0.041565      0.088803
Li	      4.53325      6.01862      6.22971        -0.074733     -0.020057      0.042581
Li	      6.46995      5.96882      8.19018        -0.078706      0.057969      0.124820
Mn	      6.46486      0.01434      6.26433        -0.341152      0.214520      0.023531
Mn	      2.16381      4.00024      2.09481         0.284460      0.162832      0.180541
Mn	      4.35814      4.02819      4.19417        -0.090486     -0.137818     -0.034051
Mn	      8.49391      7.89962      8.32641        -0.158655      0.653484      0.076759
Co	      4.24496      0.07877      4.08043         0.125161     -0.569093      0.646806
Co	      6.46415      7.97473     10.36749        -0.253484      0.044842     -0.117450
Cu	      2.17673      7.93304      6.26729        -0.006607      0.000403     -0.012700
Cu	      6.36418      4.02061      6.28678        -0.127684     -0.119688      0.013188
Cu	      0.09777      3.93827      4.17839         0.137596     -0.085735     -0.113237
O	      1.91623      6.04477      6.25028         0.090221     -0.028043     -0.059760
O	      4.37849      8.09874      6.13653         0.049104      0.008481     -0.100347
O	      4.31984      5.86237      8.46728         0.021226     -0.120382      0.112657
O	      2.17528      2.12384      2.06149        -0.029422      0.140894     -0.060959
O	      4.13462      4.02789      1.92565        -0.009732      0.030128     -0.139557
O	      4.50105      2.04074      4.11310         0.090821     -0.672595     -0.158350
O	      6.40817      3.91679      4.15362         0.606433      0.067591      0.034470
O	      6.38866      1.98141      6.05169         0.141769     -0.004070      0.101185
O	      8.73047      3.93897      6.27904        -0.016251     -0.066909     -0.123270
O	      2.40646      3.98958      3.98918        -0.156923     -0.007557     -0.024263
O	      4.33337      5.92182      4.23049         0.057315      0.358918     -0.040200
O	      4.25420      4.00373      6.43471         0.059953     -0.001899     -0.135351
O	      6.47816      5.89647      6.25615         0.062503      0.022759     -0.032674
O	      6.64865      3.98859      8.47566        -0.155980     -0.005080     -0.035146
O	      8.66376      6.02077      8.37578         0.031485     -0.331428      0.008535
O	      6.61546      7.96180      8.45385        -0.058127     -0.087792      0.006015
O	      6.30245      6.02455     10.54273        -0.587012     -0.148254     -0.205826
O	      8.40678      8.02816     10.34907         0.046835      0.866640     -0.035931
