# total energy = -208.22738528 eV
 
CRYSTAL
PRIMVEC
0.005077 6.254539 6.087556 
6.242636 0.003669 6.088898 
4.174480 4.183190 -0.010292 
PRIMCOORD
36 1
Li	      4.20975     10.32119      6.00792         0.017139      0.001761     -0.087038
Li	      8.35823      8.35748     12.11846         0.014191     -0.008391     -0.035195
Li	      8.34640      4.24667      4.13554         0.045668      0.064063      0.016528
Li	      6.23235      2.08039      4.14730         0.029331     -0.050930     -0.006396
Li	      6.26573      2.05256      8.05519         0.012033      0.002659      0.061879
Li	      4.24883      2.06675      5.98451         0.005095      0.003341     -0.002826
Li	      4.15724      8.34029      4.23249        -0.051252     -0.029651      0.005957
Li	      6.09096      8.43422      6.02724        -0.033933     -0.034891      0.027367
Li	      4.14271      6.36083      6.04607        -0.019671      0.003127     -0.056837
Mn	      2.05864      6.28188      8.05122         0.062312     -0.004684     -0.022345
Mn	      2.11295      4.14465      1.99231        -0.063422      0.049122     -0.097227
Mn	      8.37687      8.31234      8.11123         0.052525      0.053437     -0.175445
Mn	      6.23666      6.30322      8.10954         0.022479     -0.068217      0.157985
Co	      6.27373      4.12521      6.07439        -0.021087      0.007494      0.205798
Co	      2.12667      6.27533      4.12651        -0.558935      0.076901      0.144804
Ni	      4.16531      8.34230      8.09210         0.024266     -0.062830     -0.015867
Ni	      6.24031      6.28706      4.12152        -0.165633      0.048972      0.144038
Ni	      4.16240      4.17304      4.10823         0.016024      0.088361      0.019595
O	      4.16327      8.34027      6.19339         0.006468     -0.044376     -0.119109
O	      2.09739      2.10089      2.08774        -0.089275      0.011574     -0.133885
O	      4.15084      4.13583      1.99392        -0.019180      0.080149     -0.055378
O	      4.10949      2.14596      3.95692         0.088277     -0.024467      0.142952
O	      6.20866      4.25260      4.10557         0.084681     -0.099665      0.008430
O	      6.26344      2.32866      6.07647         0.001736      0.145336      0.014587
O	      8.19613      4.19263      6.17036        -0.174044     -0.043313      0.033240
O	      2.09116      4.23832      3.96592        -0.032454      0.090249     -0.143295
O	      4.01749      6.19943      4.05004         0.663166     -0.005243      0.056698
O	      4.35434      4.16090      6.17335         0.206711     -0.001566      0.122769
O	      6.25337      6.10349      6.15844        -0.007449     -0.079877      0.084915
O	      6.25562      4.20215      8.01286         0.001744     -0.035997     -0.187675
O	      8.25096      6.23843      8.11754         0.068186     -0.054482      0.024585
O	      2.06043      6.27275      6.10317         0.036218     -0.022172      0.001291
O	      4.21685      6.21636      8.17611        -0.050369     -0.031220      0.012005
O	      6.32519      8.36881      8.05662         0.090397      0.018330     -0.022166
O	      6.40563      6.27357     10.02922        -0.262580     -0.023925     -0.085605
O	      8.39768      8.19438     10.00474         0.000637     -0.018977     -0.039134
