# total energy = -103.67290225 eV
 
CRYSTAL
PRIMVEC
4.091425 0.000605 -0.003128 
2.051278 4.241136 -6.263855 
2.044657 4.244919 2.088318 
PRIMCOORD
16 1
Li	      2.05436      4.23438      1.98635        -0.003342      0.006383     -0.027771
Li	      2.06036      2.05589     -0.02319        -0.007507     -0.007403     -0.022805
Li	      4.08014      4.28586      0.09119         0.009143     -0.009654      0.019191
Li	      4.09312      6.42715     -2.08026         0.002178     -0.000142      0.004489
Ti	      6.09734      4.26483     -1.97064         0.004710     -0.125886      0.316032
Ti	      6.20329      6.40039     -4.33641         0.019968      0.252065     -0.313291
Ni	      4.09099      2.12790     -2.01924         0.008273     -0.024472      0.047147
Ni	      4.09402      4.17801     -4.22849        -0.008424     -0.015593     -0.002197
O	      4.09446      4.22224     -2.10136         0.031961      0.134040      0.075315
O	      6.13774      6.28990     -2.14296        -0.000019     -0.122686     -0.064859
O	      4.09536      2.07666      0.07923         0.005450      0.008763      0.380766
O	      6.13561      4.36968     -0.11143        -0.003724     -0.151432     -0.300657
O	      2.04858      2.33429     -2.05658        -0.006821      0.164779     -0.010470
O	      6.13778      4.35190     -4.05450         0.000839      0.025407      0.031013
O	      4.08300      6.28443     -4.22067        -0.049494      0.087012      0.003584
O	      6.14214      8.27126     -4.16012        -0.003191     -0.221181     -0.135486
