# total energy = -211.36734290 eV
 
CRYSTAL
PRIMVEC
-0.009172 6.212087 6.183754 
6.203114 0.001514 6.172405 
4.153698 4.152718 -0.017583 
PRIMCOORD
36 1
Li	      0.04628      6.16928      6.18837        -0.103955      0.043313     -0.027094
Li	      2.17033      8.16334      6.18066        -0.030918      0.010371     -0.043570
Li	      2.04838      6.21950      8.16063         0.033119     -0.003288      0.114472
Li	      8.23511      4.16000      8.15212        -0.005693      0.027423     -0.058823
Li	      6.24082      4.17689      6.22996         0.086110      0.011036     -0.064241
Li	      6.20741      4.15839     10.18976         0.033222      0.026957     -0.046198
Li	      2.04416      6.26194      4.22748        -0.053183      0.040168     -0.038272
Li	      4.22331      4.11851      8.23038        -0.026394     -0.010584      0.017929
Li	      6.21993      6.17545      8.25749         0.017567      0.005029      0.009303
Mn	      6.24938      8.25781     10.27706         0.296638     -0.170278     -0.025418
Mn	      6.16514      2.15627      8.14439        -0.023053      0.070702     -0.060161
Mn	      6.19180      6.21109      4.10037         0.006009     -0.108847      0.001293
Mn	      4.08034      4.20599      4.10268         0.109946     -0.117116      0.000029
Co	      4.12299      2.08958      2.07468         0.103609     -0.079756      0.117997
Co	      8.37898     10.26731     10.31624         0.141588      1.206274      0.011005
Co	      4.14663      2.07292      6.15621         0.136213     -0.325224      0.001180
Cu	      4.08942      6.20863      6.26784         0.104545     -0.059698      0.029063
Ni	      6.18063      8.33482      6.21743        -0.015945     -0.082554      0.058257
O	      2.16943      6.16148      6.19109        -0.025260      0.153074      0.067311
O	      2.05769      2.06637      2.16815        -0.127906     -0.005492     -0.033132
O	      4.10627      4.12633      2.15423        -0.009679      0.067117     -0.097272
O	      4.24817      2.04505      4.12433         0.018005     -0.114929     -0.063890
O	      6.10544      4.14739      4.13480        -0.322410     -0.114678     -0.026888
O	      6.09416      2.06948      6.14527         0.054430      0.035928     -0.002892
O	      8.29246      4.33116      5.99869        -0.141273     -0.391582      0.048737
O	      2.12157      4.01249      4.15501         0.224218      0.044078     -0.113485
O	      4.08384      6.26834      3.88196        -0.077338     -0.124852     -0.136797
O	      4.08991      4.10990      6.07237         0.143822      0.043534      0.006744
O	      6.28617      6.24581      6.06031        -0.093994     -0.053579      0.029011
O	      6.20627      4.00006      8.18860        -0.003426     -0.105089     -0.002878
O	      8.41681      6.23280      8.00632         0.064917      0.001655      0.062666
O	      4.16410      8.19826      6.38185        -0.201798      0.015614      0.143017
O	      4.12807      6.39702      8.45157        -0.174714     -0.445898     -0.115889
O	      6.03434      8.30066      8.33015         0.061526      0.024637      0.255706
O	      6.22548      6.33708     10.29006         0.149867      0.324618     -0.010678
O	      8.13738      8.33145     10.27972        -0.348413      0.161914     -0.006139
