# total energy = -211.49660183 eV
 
CRYSTAL
PRIMVEC
0.013361 6.126535 6.246285 
6.205678 0.010968 6.248633 
4.175243 4.123840 -0.030416 
PRIMCOORD
36 1
Li	      6.22412      6.08036     12.35306         0.019942     -0.089463      0.173333
Li	      8.40999      8.18975     12.34781         0.075194      0.011684      0.084259
Li	      4.28255      6.05593     10.42129        -0.123392      0.085644     -0.007078
Li	      8.23732      4.10961      8.32805        -0.034337     -0.036783     -0.008004
Li	      6.20677      6.21779      4.15880        -0.054931      0.053227      0.021735
Li	      6.20371      4.20307     10.43679         0.140290     -0.205853      0.068733
Li	      8.19624      6.18458     10.44962         0.158171     -0.108808      0.014476
Li	      4.13739      6.23373      6.21448         0.011395      0.044303      0.015851
Li	      6.19709      6.09800      8.46246        -0.003905     -0.041693     -0.160608
Mn	      2.10359      6.14006      8.28402         0.079047      0.077705     -0.409428
Mn	      4.17946      6.18755      2.08430         0.083637     -0.209605     -0.015181
Mn	      4.12123      4.13347      4.16167        -0.211554      0.148274     -0.042887
Mn	      8.31556      6.12420      6.23454        -0.213593     -0.000540      0.232334
Co	      6.24693      4.15060      6.23665         0.100829      0.131950      0.170717
Co	      2.01319      4.14102      6.20818         0.024612     -0.162058     -0.138669
Co	      8.33329      8.21197      8.33718        -0.000312      0.117493     -0.140723
Cu	      4.12639      8.15591      8.23882        -0.224659     -0.002020      0.248153
Cu	      6.30335      8.10276     10.41083        -0.072633      0.102641     -0.112034
O	      4.24435      8.16935      6.32699        -0.113954      0.039721     -0.551296
O	      6.23335      6.20235     10.38812         0.012018      0.474647      0.035764
O	      1.94059      1.95538      2.05798         0.271849     -0.158071      0.041375
O	      4.27383      4.19963      1.99162         0.146951     -0.098085      0.066650
O	      4.20347      2.14187      4.26090         0.400268     -0.048208      0.049701
O	      6.11646      4.05010      4.01841         0.113282     -0.415507      0.014044
O	      6.11114      2.13665      6.40723        -0.026878     -0.136648     -0.090754
O	      8.19232      4.26209      6.25308         0.078875     -0.026335     -0.111703
O	      2.19635      4.10438      4.26548         0.039442      0.015785      0.129959
O	      4.16583      6.06230      3.99618         0.010434     -0.097450      0.139734
O	      4.25089      4.00504      6.37385        -0.018404      0.015213      0.078188
O	      6.40591      6.18340      6.24826         0.125399      0.188954     -0.037889
O	      6.10446      3.97812      8.38654        -0.044745      0.513228      0.095822
O	      8.42221      6.24212      8.19774        -0.363789     -0.020975     -0.023837
O	      2.14332      6.06497      6.34830        -0.029092     -0.014631      0.103095
O	      4.01985      6.06247      8.34981        -0.145635     -0.173382      0.102667
O	      6.36003      8.31024      8.13116         0.248743      0.072119      0.037648
O	      8.23837      8.19298     10.24218        -0.458564     -0.046471     -0.074145
