# total energy = -211.47848977 eV
 
CRYSTAL
PRIMVEC
0.019981 6.173669 6.168108 
6.241381 -0.023020 6.211066 
4.165323 4.148793 -0.019821 
PRIMCOORD
36 1
Li	      4.14190      4.09614      0.03272        -0.026884      0.000954      0.067928
Li	      8.33492      2.09824      6.20463        -0.050503      0.011163      0.059497
Li	      4.18372      6.17746      2.09402         0.023006     -0.005744     -0.027293
Li	      2.06480      4.16971      2.11495        -0.017710      0.041339     -0.041786
Li	      2.01278      2.21896      4.06330         0.004858      0.008245     -0.022013
Li	      3.99555      4.18239      4.10027        -0.065373     -0.040700     -0.065761
Li	      2.16093      6.09107      4.04223        -0.022741     -0.030299     -0.073830
Li	      2.06145      4.14255      5.98429         0.016775     -0.000228     -0.006561
Li	      8.38100      8.18675      8.25714         0.012173     -0.075258     -0.023630
Mn	      2.03470      0.03075      2.06105         0.031472     -0.005179      0.194195
Mn	      6.34990      8.23104     10.33601        -0.132379      0.087338     -0.037407
Mn	      4.14786      6.15368      6.13653        -0.062589     -0.106569      0.207023
Mn	      6.29817      6.15122      8.24044         0.233372      0.035239     -0.086508
Co	      4.08174      2.13845      2.04478         0.182280      0.164534      0.183684
Co	      4.17825      2.06855      6.18561         0.020831      0.020443      0.034778
Co	      6.25516      4.13285      6.19294         0.031229     -0.160035     -0.119698
Ni	      8.37359     10.27775     10.33594        -0.034905      0.072195     -0.012542
Ni	      4.24470      8.20337      4.13484        -0.196004      0.224618     -0.241172
O	      2.03183      4.12153      4.07436         0.135423      0.024602      0.038698
O	      2.08979      1.88965      2.11953         0.330433     -0.061822     -0.062815
O	      4.34885      4.16210      2.00931        -0.208546     -0.582612      0.027439
O	      4.35366      2.02252      4.14618        -0.041222      0.106227     -0.662863
O	      6.30996      3.99079      4.10303        -0.045869      0.003856     -0.118781
O	      6.26376      2.19168      6.07657        -0.031673     -0.006503      0.024433
O	      8.19035      4.18714      6.16675        -0.100331      0.036773      0.113845
O	      4.14227      6.21192      4.27592         0.015145     -0.132593     -0.010416
O	      4.31462      4.18167      6.15980         0.051356      0.173131      0.015551
O	      6.15421      6.09380      6.28576        -0.060676      0.043123      0.008288
O	      6.23530      4.24471      8.14571        -0.002125     -0.050644      0.193289
O	      8.16483      6.21592      8.13854        -0.011180      0.064142      0.179615
O	      2.21980      6.10490      6.36230         0.097605      0.002289     -0.154866
O	      4.17871      8.11228      6.19342        -0.119635      0.015409      0.552729
O	      4.19250      6.17658      8.18341         0.064110      0.336563     -0.100724
O	      6.24735      8.19505      8.37360        -0.242262     -0.047607     -0.051425
O	      6.26618      6.23741     10.18831         0.114010     -0.026099      0.013322
O	      8.25515      8.24610     10.30400         0.108530     -0.140289      0.005781
