# total energy = -213.79603098 eV
 
CRYSTAL
PRIMVEC
0.004688 6.204724 6.213602 
6.214602 0.021303 6.197133 
4.175771 4.158096 -0.018513 
PRIMCOORD
36 1
Li	      0.02241      0.02065      0.01865        -0.065671      0.020836      0.022013
Li	      2.08050      2.05865      0.03129         0.018772      0.011336      0.185045
Li	      2.01297      0.04444      2.02549         0.024809      0.065333     -0.051894
Li	      4.16231      2.13434      2.02407        -0.126678      0.013154     -0.039567
Li	      6.26123      2.10611      8.23720         0.132990     -0.030848      0.001791
Li	      2.06175      2.03774      4.06713        -0.002566      0.021768     -0.205770
Li	      6.16866      4.17649     10.26875         0.035419     -0.013696     -0.009394
Li	      8.35826      8.30182      8.30432        -0.064439      0.018986     -0.036386
Li	      6.25620      6.20980      8.28209         0.028819      0.022090     -0.031429
Mn	      4.18747      4.14729      4.07883        -0.257842      0.080997     -0.014944
Mn	      8.35501      6.21740      6.27038        -0.080982     -0.131963      0.052831
Mn	      8.27103      6.28541     10.28796         0.119646     -0.199052      0.021183
Mn	      6.19561      8.30117      6.26644        -0.061799     -0.098114     -0.202213
Co	      4.20439      6.18501     10.25774        -0.072372      0.074876      0.041414
Co	      2.03227      3.97644      2.06035         0.186324      1.850453     -0.068786
Co	      6.22224      4.14561      6.23771         0.133607      0.088461      0.288269
Co	      4.14979      6.28890      6.39313        -0.099682      0.127036      0.087738
Cu	      6.25855      8.29182     10.25711         0.037136     -0.050232     -0.110347
O	      6.25302      8.30971      8.08750         0.018370     -0.021288      0.423790
O	      2.10603      2.18683      2.04731        -0.189872     -0.135497      0.081217
O	      4.14448      4.18213      2.24550        -0.706369     -0.239968     -0.033891
O	      4.21152      2.17256      4.17310        -0.004327      0.007742      0.091117
O	      6.14481      4.11102      4.24434        -0.166145      0.146982     -0.754931
O	      6.05046      2.15423      6.28737        -0.132253     -0.599965     -0.184117
O	      8.29616      4.29358      6.12143         0.517497     -0.135908      0.216986
O	      2.18157      4.23764      4.15796         0.093843     -0.114298     -0.365634
O	      4.07057      6.09778      4.27913        -0.067995     -0.117884      0.050267
O	      4.07043      4.08841      6.12646        -0.394406      0.006396     -0.050272
O	      6.30756      6.29246      6.14963        -0.085117      0.347796      0.035617
O	      6.29461      4.17240      8.14464         0.935990     -0.217378      0.901761
O	      8.32097      6.15449      8.26717        -0.106936     -0.591823     -0.068531
O	      2.10945      6.10617      6.17622        -0.005026     -0.022983      0.041568
O	      4.29068      8.23089      6.14218         0.221463     -0.065193     -0.012898
O	      4.14713      6.20756      8.21403         0.070215     -0.072999     -0.187875
O	      6.31425      6.30196     10.31104         0.043124     -0.060249     -0.041150
O	      8.26838      8.24345     10.33054         0.072454      0.015098     -0.072577
