# total energy = -214.18473877 eV
 
CRYSTAL
PRIMVEC
-0.030805 6.134629 6.197997 
6.156984 -0.030417 6.198393 
4.109435 4.095031 -0.025397 
PRIMCOORD
36 1
Li	      8.10866      4.11961      4.14579         0.001666     -0.003946      0.001744
Li	      6.11242      2.06687      4.12400         0.003939     -0.013882      0.010070
Li	      6.21219      2.11157      8.29516        -0.005992      0.058001      0.013525
Li	      2.03399      4.04054      2.15123        -0.004688      0.000840      0.001423
Li	      2.01462      2.06352      4.09314         0.011760      0.008218     -0.051348
Li	      6.11304      4.09303      6.13686         0.000592     -0.013040     -0.008801
Li	      0.16456      4.05574      4.06063         0.012145     -0.018038     -0.017988
Li	      2.06393      6.01749      4.10514        -0.008469      0.029604      0.006798
Li	      2.04724      4.05031      6.10602         0.016535     -0.000149     -0.017737
Mn	      6.17614      6.06372     12.29243         0.017685      0.073835     -0.015412
Mn	      4.07061      4.10855      4.10873        -0.037526     -0.007868      0.001265
Mn	      8.17592      6.09668      6.12425        -0.156708     -0.018294     -0.008414
Mn	      6.12449      6.10548      8.31809         0.024265     -0.001928      0.016883
Co	      8.19454      2.05072      6.15825        -0.119068     -0.024068     -0.057654
Co	      4.10493      2.04622      2.07250         0.012945      0.022063      0.017481
Co	      4.11893      6.12140      6.13402        -0.001641     -0.016250     -0.110832
Co	      8.19367      8.14546      8.52151         0.104564     -0.015410      0.139848
Ni	      6.15995      4.09826      2.09371         0.042765     -0.016394     -0.040873
O	      2.20194      2.02974      1.94876        -0.077845      0.115812      0.012285
O	      4.13272      3.96433      2.14060        -0.103207      0.035813      0.051428
O	      4.07287      2.13815      4.04336        -0.000139     -0.005012     -0.114997
O	      6.03268      4.09387      4.08983        -0.049767     -0.000447      0.143894
O	      6.08619      1.86767      6.22772         0.329579     -0.005510      0.016238
O	      8.34765      4.05672      6.14620        -0.045333      0.025870      0.008052
O	      2.18898      4.07348      4.11218         0.062488      0.015651      0.019625
O	      4.10267      6.04159      4.21857         0.005243     -0.027753      0.103125
O	      4.07990      4.14497      6.10488         0.018880     -0.034819     -0.059765
O	      6.08164      6.11769      6.31813         0.043958     -0.001080      0.096067
O	      6.04928      4.17764      8.25706        -0.141573     -0.000394      0.027568
O	      8.03687      6.19319      8.21096        -0.046206      0.030446      0.096332
O	      2.03421      6.19991      6.22322        -0.019619      0.040361     -0.025749
O	      4.11577      8.16334      6.30248        -0.076395     -0.049689      0.020969
O	      4.12506      6.18072      8.12571         0.151422     -0.084756     -0.050920
O	      6.08374      8.09066      8.26872         0.060047     -0.138003      0.024811
O	      6.12341      6.08774     10.21782        -0.004871     -0.006031     -0.119680
O	      8.16253      8.19303     10.29688        -0.021434      0.046248     -0.129261
