# total energy = -217.17383543 eV
 
CRYSTAL
PRIMVEC
0.044936 6.321736 6.112382 
6.234244 0.038451 6.119539 
4.157208 4.219818 0.024691 
PRIMCOORD
36 1
Li	      6.28186      6.38592     12.15458         0.091677     -0.053189     -0.006032
Li	      8.36462      8.43598     12.19605         0.002015      0.008485     -0.013702
Li	      8.42026     10.54284     10.28951        -0.078331     -0.019709      0.068673
Li	      2.04697      2.23139      4.12527         0.036236     -0.055239     -0.019461
Li	      4.10194      4.25002      4.10618         0.096995     -0.016586     -0.026119
Li	      4.16543      2.12688      6.04891        -0.008788     -0.007459     -0.034613
Li	      4.21236      8.40214      4.17989        -0.055814      0.014394     -0.043211
Li	      2.10540      6.30752      4.14907        -0.040948      0.045527     -0.007640
Li	      2.10266      4.23920      5.94956        -0.042176      0.057750     -0.058549
Mn	      4.14869      2.12674      2.05029        -0.029592      0.030296      0.064913
Mn	      6.30784      8.44412     10.21628         0.075841      0.149646      0.097685
Mn	      2.07608      4.24422      2.11389        -0.060776     -0.064742     -0.215981
Mn	      4.16254      6.32813      6.08256        -0.049202     -0.047575     -0.124087
Co	      6.23679      4.24136      2.07470        -0.015891     -0.064116      0.242191
Co	      4.17284      6.28892      2.12996         0.011128      0.120628      0.088694
Co	      6.30526      4.24513      6.04305        -0.973606      0.295361      0.545812
Co	      8.34880      8.44903      8.20195         0.174250      0.100772     -0.095764
Co	      6.33932      6.31835      8.20654        -0.037709     -0.024378      0.080386
O	      2.08481      2.00491      2.08304        -0.230581     -0.117219      0.024185
O	      4.23607      4.20510      1.98298        -0.195359     -0.223644     -0.043222
O	      4.29443      2.12359      3.94798         0.031640     -0.003970      0.057076
O	      6.24120      4.09277      4.04451         0.031461     -0.143640     -0.412487
O	      6.22131      2.19517      5.99749         0.203265      0.463618      0.183346
O	      8.17554      4.26651      6.27482        -0.001584      0.023197     -0.024969
O	      2.08857      4.23971      3.94487         0.040635     -0.007815      0.043378
O	      4.16212      6.33413      4.22420        -0.003243     -0.017064     -0.084496
O	      4.28508      4.35595      6.23105         0.407063      0.010261     -0.190640
O	      6.12403      6.30766      6.18404         0.212090     -0.513813     -0.044529
O	      6.17091      4.20628      8.14873        -0.084439      0.102743      0.093078
O	      8.35518      6.48277      8.13123         0.208549      0.171565      0.010276
O	      2.25741      6.30717      6.25810         0.034080     -0.058238     -0.142443
O	      4.20608      8.28362      6.25231         0.037623     -0.143718     -0.084329
O	      4.09863      6.24320      8.09400         0.150013      0.001249     -0.011416
O	      6.36483      8.58467      8.24045         0.093429     -0.095648     -0.055732
O	      6.25127      6.52375     10.16616         0.039148      0.115619      0.039104
O	      8.22717      8.46844     10.10000        -0.069099     -0.033352      0.100627
