# total energy = -212.04272069 eV
 
CRYSTAL
PRIMVEC
0.032283 6.132019 6.103706 
6.369575 0.007088 6.129171 
4.264080 4.121528 -0.013015 
PRIMCOORD
36 1
Li	      6.44554      6.15108     12.19763         0.008233      0.036176     -0.035447
Li	      2.14266      8.10371      6.04899         0.005733     -0.039691      0.020909
Li	      6.42006      2.04609      4.15663        -0.000183      0.007293      0.044609
Li	      6.34425      6.18487      4.09160         0.007710     -0.028962      0.023120
Li	      4.26185      4.21212      4.11792         0.026435     -0.015966      0.004526
Li	      6.36927      4.12866      6.01140         0.016954      0.031606     -0.049401
Li	      2.12683      6.12461      4.17315        -0.022568      0.019659      0.022610
Li	      4.26748      6.14668      5.97227        -0.004158     -0.042802     -0.040789
Li	      6.42445      6.13612      8.15801         0.000979      0.001164     -0.010482
Mn	      2.19668      6.14152      8.13706        -0.024854      0.093112     -0.029861
Mn	      4.34726      6.11485     10.22314        -0.163319     -0.008750     -0.003256
Mn	     10.58710      6.17156      8.19321         0.148932     -0.156713     -0.196278
Mn	      4.22848      2.07115      6.09663        -0.090984      0.015503     -0.046448
Fe	      4.31722      8.23583      8.06641        -0.130482     -0.096743      0.114835
Co	      4.27359      8.20761      4.09641        -0.252821      0.002013     -0.111550
Cu	      2.15951      4.08956      6.05443        -0.198137      0.047976     -0.265681
Ni	      8.46144      4.09561      8.16798        -0.025824     -0.012348     -0.031364
Ni	      4.27073      4.09742      8.14930         0.012140      0.051149      0.066019
O	      6.57079      6.29355      6.05899         0.206131     -0.721867      0.049909
O	      2.26499      2.01163      1.97403        -0.077812     -0.074306     -0.031780
O	      4.18372      4.10420      2.11126         0.008846      0.086212      0.003031
O	      4.33699      1.93305      4.12636         0.003522      0.035666     -0.008765
O	      6.60444      4.10002      3.96641         0.136853      0.080821     -0.063934
O	      6.20160      2.07464      6.25038        -0.045555     -0.061496      0.121871
O	      8.44967      4.24905      6.04588         0.021003     -0.014664     -0.075759
O	      1.91868      4.12283      4.04093         0.113841      0.031376      0.261800
O	      4.25378      6.23714      3.96730        -0.039267      0.078645      0.075414
O	      4.24600      3.99652      6.10068        -0.124704      0.091248     -0.134898
O	      6.37708      4.01883      8.28598         0.071411      0.025776      0.072940
O	      8.44482      6.16465      8.01008        -0.059012     -0.064628     -0.044249
O	      2.16753      6.02604      6.20235         0.003555      0.632941      0.250248
O	      4.33956      8.15716      6.08529         0.361590      0.015280      0.012781
O	      4.37152      6.18727      8.26841         0.091050      0.085855      0.072284
O	      6.36325      8.30159      8.15333        -0.022619     -0.077211     -0.166738
O	      6.26090      6.02886     10.23498        -0.038121     -0.066193      0.000153
O	      8.65561      8.30712     10.18966         0.075503      0.012870      0.129617
