# total energy = -210.48122157 eV
 
CRYSTAL
PRIMVEC
-0.013281 6.415737 6.233770 
6.114010 0.032255 6.188670 
4.094068 4.265030 0.003329 
PRIMCOORD
36 1
Li	      4.12755      4.24780      0.08465         0.031181      0.001151     -0.021910
Li	      2.02924      2.11896      0.20918        -0.024511     -0.026278     -0.089859
Li	      6.03944      4.40545      2.10842         0.023653      0.024754     -0.015971
Li	      3.99131      2.28827      2.07721         0.111034      0.006281     -0.043332
Li	      6.09501      2.13502      4.15001        -0.008674     -0.000917     -0.014182
Li	      4.17514      6.31167      2.09447        -0.033110     -0.017648     -0.000140
Li	      2.07053      2.02339      4.00363        -0.021988     -0.070965      0.046489
Li	      6.10729      4.35826     10.35054         0.006435      0.015441      0.013443
Li	      6.10288      6.41916      8.35814         0.004534      0.021329     -0.031079
Mn	      6.14577      4.25985      6.17632        -0.024260     -0.057235     -0.068817
Mn	      8.08657      6.48321     10.33060         0.003176      0.157698      0.033631
Mn	      2.02602      4.30087      6.21762        -0.036651      0.056767      0.066474
Mn	      8.17528      8.55032      8.28833        -0.051815      0.060621      0.007057
Fe	      4.07579      6.54198      6.22487         0.071904     -0.098189      0.061184
Co	      4.09455      2.10665      6.15710         0.000076     -0.044404      0.042537
Ni	      4.10789      6.47533     10.31239         0.054779     -0.027312     -0.053165
Ni	      2.07532      4.10223      2.08633        -0.161454      0.259641      0.025175
Ni	      4.12656      4.26806      4.01873         0.057219     -0.044737      0.149338
O	      2.03270      2.15427      2.11058         0.060436     -0.112967      0.032006
O	      4.03669      4.28393      2.06936        -0.003957     -0.047976     -0.154256
O	      4.08327      2.14579      4.25690        -0.039174      0.035425      0.070591
O	      6.14357      4.25954      4.28506         0.030832     -0.024330      0.025376
O	      5.97024      2.35389      6.21822         0.088115     -0.003013     -0.000036
O	      8.02937      4.24836      6.18008        -0.025829     -0.036646      0.058124
O	      2.05064      4.48347      4.23480        -0.121157     -0.038058     -0.093410
O	      3.94710      6.37675      4.24635        -0.010402      0.075989     -0.154251
O	      4.08893      4.35838      6.27496         0.123218      0.024774     -0.006098
O	      6.16433      6.28457      6.17737        -0.043193     -0.053276      0.017713
O	      6.04053      4.31335      8.12056         0.053845     -0.051938      0.098118
O	      8.14687      6.57112      8.32358         0.020737     -0.105143     -0.089652
O	      2.08135      6.50171      6.06627        -0.136186     -0.033528      0.048594
O	      4.22664      8.43920      6.28146        -0.111197      0.221031     -0.059541
O	      4.06571      6.20818      8.25112        -0.007594      0.006605      0.009118
O	      6.26393      8.53851      8.12028        -0.033110     -0.016751      0.050147
O	      6.18412      6.44870     10.37678         0.146167      0.008230     -0.023191
O	      8.16371      8.47197     10.16367         0.006921     -0.064426      0.063775
