# total energy = -214.72692350 eV
 
CRYSTAL
PRIMVEC
0.001450 6.127941 6.329846 
6.139502 0.008534 6.322678 
4.113540 4.100873 -0.014902 
PRIMCOORD
36 1
Li	      4.08339      4.11622      0.06026        -0.020147      0.030691      0.084938
Li	      4.08422      2.02817      2.18635        -0.012383     -0.018725      0.092305
Li	      4.07460      0.05050      4.16885        -0.032225      0.001376     -0.014145
Li	     10.23692      6.12560      8.40382        -0.003658      0.003149     -0.032178
Li	      6.16978      6.09920      4.22170         0.005542      0.008156      0.014086
Li	      8.17543      6.16432      6.33316        -0.009761     -0.000847      0.000735
Li	      6.15623      4.11392      6.32228         0.004790      0.018301     -0.006039
Li	      4.12971      6.11218      6.31566         0.004146     -0.005241     -0.013406
Li	      4.13760      4.10734      8.36413         0.026944     -0.025305     -0.060979
Mn	      2.06420      2.07984      0.02341        -0.125117      0.073824     -0.141887
Mn	      4.10504      4.11787      4.17740        -0.079691     -0.018443      0.129265
Mn	      6.12145      8.20604      6.31715         0.024481     -0.012956     -0.067024
Mn	      6.10492      6.14017      8.41914         0.044563     -0.003157     -0.029057
Fe	      6.09734      2.05628      4.28091         0.081569      0.068737     -0.007827
Co	      2.11715      6.13867      8.44594         0.044673      0.098808     -0.000672
Co	      2.07430      4.07381      2.08425         0.097195     -0.032407     -0.028008
Cu	     10.23895      8.16277     10.48869         0.011640     -0.045453     -0.076846
Ni	      8.22864      6.16307     10.49889         0.001444     -0.038386      0.061170
O	      4.10490      6.04586      4.15887         0.140620      0.061427      0.005164
O	      2.08948      2.09033      1.91455        -0.044861      0.124296      0.137230
O	      4.05104      4.07731      2.23946        -0.143728     -0.006687     -0.145284
O	      4.14659      2.15766      4.26341        -0.090245     -0.087756     -0.025509
O	      6.05164      4.08772      4.14716         0.110374      0.007307      0.170544
O	      6.28748      2.05294      6.26484         0.062261     -0.005467      0.151449
O	      8.20894      3.97917      6.48151         0.037735     -0.037240     -0.018421
O	      2.16841      4.08199      4.05536        -0.055027     -0.118077     -0.019666
O	      3.94972      4.10963      6.13180         0.019981     -0.002448      0.053330
O	      6.13684      6.26244      6.49966        -0.012711     -0.019859     -0.009706
O	      6.23912      4.18836      8.50634         0.021756      0.025788     -0.081548
O	      8.09733      6.02840      8.43875        -0.060039     -0.003296     -0.126809
O	      2.03342      6.13660      6.37550        -0.032029      0.019158     -0.152221
O	      4.10787      8.20375      6.13050        -0.046605     -0.002578      0.160376
O	      4.19637      6.10943      8.45623         0.113418      0.004247      0.018377
O	      6.19205      8.11630      8.50450         0.019330     -0.151448     -0.064007
O	      6.16392      6.18340     10.38954        -0.111850     -0.021167     -0.004997
O	      8.12327      8.20043     10.72518         0.007613      0.111677      0.047267
