# total energy = -103.65827793 eV
 
CRYSTAL
PRIMVEC
2.063577 4.181252 2.067537 
4.172037 -2.103046 -2.087556 
0.004085 4.184323 -4.145020 
PRIMCOORD
16 1
Li	      0.06082      4.15861     -4.14654         0.029507      0.006527     -0.012125
Li	      2.09725      2.11592      0.01399         0.002561      0.007283     -0.000687
Li	      4.09961      4.11900     -0.00879        -0.021505     -0.013073      0.005078
Li	      2.05508      4.18542     -2.07676        -0.002101      0.002945     -0.004263
Ti	      0.10884      1.99840     -2.07756         0.188408     -0.285437     -0.004056
Ti	      4.07353      4.21010     -4.23439        -0.260618      0.141858     -0.054138
Ni	      4.12859      2.11026     -2.06944        -0.023339      0.005445      0.046518
Ni	      4.12706      6.27377     -2.10897        -0.064149     -0.003126     -0.038144
O	      2.00082      2.11339     -2.09684        -0.286954     -0.010180      0.105734
O	      4.26190      4.18659     -2.18481         0.038643      0.003982     -0.050438
O	      2.21683      4.12213     -4.16910         0.308620      0.131234     -0.008720
O	      4.11636      1.94423     -0.02576         0.006888     -0.188538      0.009250
O	      4.19259      0.02220     -2.07754        -0.008361     -0.110632      0.029668
O	      2.05378      4.32788      0.03958         0.111467      0.318534     -0.019607
O	      4.14225      2.10469     -4.12747         0.114791     -0.001729     -0.117665
O	      2.02586      6.27671     -1.96523        -0.133860     -0.005096      0.113595
