# total energy = -213.63766417 eV
 
CRYSTAL
PRIMVEC
0.045752 6.208926 6.138672 
6.231010 0.016016 6.167579 
4.196062 4.200055 -0.030853 
PRIMCOORD
36 1
Li	      2.18495      6.24266      8.20120        -0.038899      0.013989     -0.020812
Li	      8.42027     10.33052     10.20059        -0.071936      0.033386      0.064313
Li	     10.29168      6.39173      8.29616         0.028699      0.005596     -0.007735
Li	      8.29122      4.29489      8.26164         0.009703     -0.143672     -0.023427
Li	      2.06579      2.11443      4.01163        -0.012287      0.017078      0.060891
Li	      8.36208      6.23703      6.30062        -0.014463     -0.037769     -0.181299
Li	      6.22821      4.19294     10.12070        -0.005203     -0.035026      0.033568
Li	      8.33492      6.26561     10.11846         0.044915     -0.007974      0.181419
Li	      8.38192      8.21117      8.32163        -0.014310      0.123432     -0.008383
Mn	      6.19854      0.08394      6.10777        -0.035099     -0.008110      0.038635
Mn	      4.21532      8.28485      8.18372        -0.169032      0.137445      0.035024
Mn	      4.18787      4.20198      4.05897        -0.003419      0.005790      0.136520
Mn	      6.29844      4.18140      6.21178        -0.057930      0.072023     -0.164576
Fe	      8.35742      8.29740     12.25488        -0.088018      0.104899      0.172566
Co	      4.20520      6.23004      6.10707         0.029694     -0.101159     -0.128897
Co	      6.28905      6.24155      8.18456         0.766713     -0.106260      0.644646
Cu	      6.36191      8.30601     10.18815        -0.058142      0.065850      0.028869
Cu	      2.14165      4.15467      6.08691         0.012882     -0.074854     -0.054827
O	      8.19192      6.28909      8.16787        -0.550861     -0.038854      0.056328
O	      8.33114      8.34839     10.32620         0.070525     -0.049425     -0.280731
O	      2.29816      2.06704      1.99915         0.100828     -0.015108      0.083378
O	      4.23446      4.03936      2.09453        -0.000214      0.022591     -0.007323
O	      4.26374      2.20929      3.95562         0.005608     -0.043854     -0.162326
O	      6.17267      4.11757      4.22221         0.054489     -0.013786     -0.127744
O	      6.29575      2.20584      6.35253        -0.117771     -0.315134      0.132157
O	      8.26084      4.16370      6.13282         0.423491      0.037151     -0.009721
O	      2.30132      4.11999      4.17697         0.064518      0.075648     -0.337613
O	      4.23759      6.10670      4.16298        -0.053662      0.047991     -0.066056
O	      4.30151      4.28876      6.04765        -0.234698     -0.005288     -0.019629
O	      6.15457      6.14268      6.21536        -0.113802      0.236457     -1.034189
O	      6.23651      4.30194      8.11716        -0.054032     -0.359392      0.077859
O	      2.21870      6.26023      6.14975        -0.005725      0.041293      0.020327
O	      4.17184      8.22119      6.18265        -0.011338     -0.037935      0.084587
O	      4.28095      6.34560      8.07618         0.157695      0.003102     -0.035201
O	      6.17897      8.20543      7.99164         0.000629      0.381417      0.069602
O	      6.25027      6.32020     10.16495        -0.059549     -0.031538      0.749803
