# total energy = -213.55251910 eV
 
CRYSTAL
PRIMVEC
0.000622 6.151928 6.334449 
6.236283 -0.025295 6.358107 
4.137865 4.097663 0.004266 
PRIMCOORD
36 1
Li	      4.20703     10.16984      6.43598        -0.008810      0.046117      0.038742
Li	      4.07574      2.10737      2.00587         0.062753     -0.071592      0.024957
Li	      4.20789      6.08496      2.22028        -0.024520      0.012966      0.013422
Li	      2.13958      4.05527      2.25321        -0.015607      0.060855     -0.021002
Li	      2.01290      2.13860      4.13308         0.021613     -0.049147      0.021221
Li	      4.19693      8.11941      4.32518         0.023251     -0.007778      0.015608
Li	      2.13671      6.07597      4.25844        -0.020154      0.022348     -0.047358
Li	      1.92888      4.16922      6.25924        -0.030539      0.008788     -0.018742
Li	      4.08572      6.21781      6.20607         0.017435     -0.021228      0.037530
Mn	      2.13594      8.14775      6.36614         0.022724      0.030130      0.244388
Mn	      4.07803      4.14672      4.20902        -0.070660      0.078588     -0.200847
Mn	      6.20997      4.09682      6.37384         0.263563     -0.082492     -0.261378
Mn	      6.24165      6.15050      8.44779        -0.018318      0.008027     -0.121257
Fe	      4.18890      6.16633     10.53507        -0.104429      0.160331     -0.133492
Co	      2.04027      0.01896      2.07415        -0.037765      0.061787     -0.185110
Co	      8.29804      8.16420      8.47449        -0.135938     -0.064724      0.362105
Ni	      6.23988      8.15660     10.57494        -0.033619      0.031171     -0.011148
Ni	      8.31617      6.11693      6.38691        -0.003274     -0.056219      0.010493
O	      2.08902      2.01257      1.94268        -0.122222     -0.391835     -0.137882
O	      4.20283      4.06370      2.30706         0.396024      0.105235      0.175516
O	      4.18874      2.03644      4.31651        -0.086460      0.073028     -0.055430
O	      6.20538      4.09420      4.35543        -0.056547      0.080518     -0.213995
O	      6.28437      2.14744      6.35195         0.143890      0.040380      0.031857
O	      8.18970      4.03904      6.29416        -0.010774     -0.234761      0.042623
O	      2.23491      4.06837      4.27521         0.158937      0.006462     -0.087627
O	      4.16473      5.99652      4.21168        -0.004148     -0.101155     -0.013751
O	      4.29825      4.06550      6.24111        -0.055417      0.119306      0.094489
O	      6.24069      6.02846      6.49894        -0.083515     -0.030504      0.133943
O	      6.14071      4.17183      8.33114         0.561451      0.262305      0.057013
O	      8.15343      6.21003      8.42268        -0.259838     -1.193650      0.030625
O	      2.02951      6.28279      6.33632         0.014243      0.017241      0.238412
O	      3.98935      8.22662      6.31158        -0.131188     -0.002295      0.010660
O	      4.20426      6.05721      8.52319        -0.167609      1.042275      0.185597
O	      6.31460      8.12557      8.46136        -0.500854      0.288901     -0.149262
O	      6.16797      6.12977     10.38120         0.084692     -0.135319     -0.028767
O	      8.26787      8.25465     10.70318         0.211632     -0.114060     -0.082153
