# total energy = -215.86676619 eV
 
CRYSTAL
PRIMVEC
0.049655 6.250780 6.247718 
6.279149 0.019823 6.278299 
4.190537 4.191505 0.008785 
PRIMCOORD
36 1
Li	     10.38143      4.22643      6.21739        -0.038434      0.010136     -0.026106
Li	      8.37465      4.21341      4.30788         0.005331     -0.029037      0.001730
Li	      6.34862      6.24536      4.45362        -0.006595     -0.001121      0.014496
Li	      8.20561      6.31650      6.28141         0.031932      0.007473      0.056787
Li	      6.31215      4.33621      6.26277        -0.004622     -0.030301     -0.002118
Li	      6.42722      8.14806      6.27301         0.043370     -0.056635     -0.002591
Li	      4.39833      6.19604      6.30755         0.021729     -0.025906     -0.006899
Li	      4.21795      4.19671      8.15988         0.007052     -0.013101     -0.116557
Li	      6.32102      6.24594      8.19163         0.026218     -0.046003      0.059160
Mn	      2.16426      6.24109      8.28480         0.229634      0.041526     -0.055557
Mn	      6.26843      2.14674      8.31110        -0.127882      0.146099      0.021510
Mn	      4.21893      4.17101      4.24937        -0.054345      0.030742      0.260635
Mn	      2.09727      6.27750      4.24321         0.061071     -0.055338     -0.101396
Fe	      4.31621      8.27240      8.23743        -0.113196     -0.030841      0.021888
Co	      2.07363      2.09893      0.05105        -0.000278      0.206355     -0.100003
Co	      8.34510      4.27132      8.25152        -0.219522     -0.027939     -0.225647
Co	      4.21697      8.38770      4.25934         0.023058     -0.095218      0.007041
Cu	      6.26734      2.08923      4.24223         0.043785     -0.033096      0.083216
O	      6.30223      6.25744      6.31473        -0.002908     -0.010144     -0.026529
O	      2.05652      2.02436      2.02790         0.028879     -0.091076     -0.037270
O	      4.27742      4.25465      2.17331        -0.029758     -0.050136      0.013406
O	      4.23682      2.24148      4.03956        -0.065867      0.084331      0.003253
O	      6.15097      4.13243      4.06040        -0.062587      0.056437     -0.022439
O	      6.42728      2.11340      6.44674         0.013406      0.011985     -0.179581
O	      8.39072      4.03937      6.30867        -0.052038     -0.109546      0.206510
O	      2.20308      4.28917      4.11253        -0.037457      0.055695      0.065196
O	      4.10890      6.17840      4.08371        -0.015665     -0.164697      0.153861
O	      4.21979      4.16902      6.05359         0.028372     -0.010385     -0.248729
O	      6.30112      4.03203      8.51216         0.108663      0.030319      0.131704
O	      8.57798      6.31116      8.32691         0.109778      0.145480      0.044492
O	      2.13061      6.39659      6.35921        -0.034986     -0.034387      0.080197
O	      4.07155      8.37050      6.29913         0.001299      0.057343     -0.167455
O	      4.07890      6.33321      8.41422        -0.167002     -0.102118     -0.025475
O	      6.26250      8.52570      8.21744         0.099201      0.064823     -0.034770
O	      6.46464      6.33270     10.41090         0.006822      0.017146      0.042337
O	      8.36812      8.27224     10.64559         0.143543      0.051138      0.111705
