# total energy = -214.90429154 eV
 
CRYSTAL
PRIMVEC
0.028750 6.196780 6.302550 
6.268976 0.004876 6.326431 
4.177179 4.144995 0.005362 
PRIMCOORD
36 1
Li	      8.37831      8.24694     12.60573        -0.025038      0.028134     -0.069789
Li	      4.26625      6.16336     10.44014         0.057837     -0.073006      0.005463
Li	      6.34108      8.21974     10.47123         0.039276     -0.009581      0.064572
Li	      8.31693      6.22950      6.35618        -0.012857      0.041961      0.011111
Li	      8.33937      6.24271     10.51422         0.031192      0.056706      0.003751
Li	      6.30572      8.26852      6.39555         0.102246     -0.011089     -0.140156
Li	      4.24703      6.15540      6.34519         0.068459     -0.107524     -0.074303
Li	      8.25178      8.29623      8.46366         0.107638     -0.101494      0.026525
Li	      6.33772      6.25398      8.34947         0.084118     -0.159131     -0.097578
Mn	      6.32078      6.25893     12.57438        -0.171633      0.108254      0.133713
Mn	      8.34944      4.18728      8.44649        -0.186297      0.532423      0.075497
Mn	      4.18065      4.15858      4.26014        -0.194475      0.041566     -0.194774
Mn	      6.28660      4.13378      6.29590        -0.152733     -0.016010      0.145678
Fe	      4.30207      8.13589      8.41010        -0.400243      0.417836     -0.159626
Co	      2.16868      6.13078      8.37370         0.044109     -0.380209     -0.106541
Co	      6.23838      2.11050      8.41962        -0.080298     -0.079182      0.029668
Co	     10.27736      8.30489     10.59751        -0.423464      0.182118      0.012416
Ni	      6.28781      6.21560      4.24880        -0.042191      0.002272      0.155043
O	      2.12765      2.16979      2.14435        -0.165802     -0.433607     -0.096272
O	      4.08196      4.09601      2.09560         0.189429     -0.103505     -0.278617
O	      4.16541      2.22494      4.11938         0.143108      0.011771     -0.135340
O	      6.12688      4.15612      4.11285         0.214001     -0.143170     -0.132470
O	      6.28574      2.07246      6.34784        -0.080404     -0.033653      0.601400
O	      8.37848      4.14124      6.49053         0.025352     -0.007639      0.118396
O	      2.18783      4.13928      4.09833        -0.025968      0.052182     -0.167325
O	      4.20846      6.14994      4.19110        -0.013457     -0.019472     -0.621632
O	      4.26492      4.12441      6.15659         0.205570     -0.011943      0.597571
O	      6.29217      6.02300      6.26765        -0.007410     -0.023453      0.134743
O	      6.43919      4.18004      8.53026         0.328450      0.003405     -0.067126
O	      8.40205      6.07597      8.44714         0.320775     -0.209610      0.003079
O	      1.93746      6.24665      6.42087         0.104846     -0.051250      0.132085
O	      4.22709      8.44688      6.30080         0.031088     -0.044728      0.222870
O	      4.17885      6.25397      8.40596        -0.551804     -0.238455     -0.056143
O	      6.24083      8.26046      8.39983         0.315905      0.872151     -0.011267
O	      6.29068      6.17251     10.71249        -0.036961     -0.143807     -0.101057
O	      8.49841      8.27090     10.49825         0.157635      0.050739      0.036436
