# total energy = -219.17133939 eV
 
CRYSTAL
PRIMVEC
-0.018100 6.275495 6.101776 
6.414434 -0.022164 6.105144 
4.257254 4.166772 0.004646 
PRIMCOORD
36 1
Li	     10.58853      4.25564      6.17690         0.003991     -0.022288      0.015199
Li	      8.37166      2.16277      6.16301        -0.048679      0.019882      0.019497
Li	      6.34957     10.37025      8.13397         0.054201     -0.003050      0.001003
Li	      4.33063      8.38098      8.14304         0.008351     -0.009495     -0.020586
Li	      6.25666      2.20510      4.04402        -0.092775      0.037325      0.013926
Li	      4.42093      4.06169      3.98932         0.055612     -0.043779      0.029122
Li	      6.52760      4.03191      6.10674         0.056104      0.030581      0.021493
Li	      8.40681      8.40088      8.14999        -0.027809      0.033866     -0.021986
Li	      6.27225      6.32414      8.14585        -0.050332     -0.011903     -0.047398
Mn	      6.40524      4.15749     10.14714        -0.003980     -0.036068      0.042511
Mn	      8.46328      6.26913     10.15971         0.000451      0.012008      0.076209
Mn	      6.39628      8.35233      6.18636        -0.029001     -0.055977     -0.089478
Mn	      4.27207      6.21280      6.20435         0.040040      0.007614     -0.087508
Fe	      2.27885      1.92500      4.01371        -0.095350      0.199224      0.075147
Co	      8.51155     10.40485     10.15215         0.036597     -0.034309     -0.051056
Co	      0.01407      2.07021      2.02868         0.014853      0.022957      0.005470
Co	      2.16044      4.17258      2.01275         0.041767     -0.037344     -0.086879
Co	      4.35929      2.07261      6.10260        -0.022038     -0.018131     -0.093820
O	      1.98584      2.22268      2.06304        -0.032936      0.008280     -0.092665
O	      4.07762      4.32135      2.06310        -0.025004     -0.025348      0.022050
O	      4.20950      2.07065      4.03084         0.186210      0.027709     -0.110806
O	      6.44196      4.20755      4.06581        -0.004926     -0.238237      0.042699
O	      6.34227      2.10051      6.23490         0.075143      0.028718      0.088094
O	      8.51807      4.22062      6.20101        -0.081922     -0.092808     -0.014493
O	      1.97331      4.22487      4.06092        -0.030017      0.022613      0.075442
O	      4.36042      6.36995      4.09565        -0.014119     -0.008841      0.018272
O	      4.05774      4.24274      6.10102        -0.004816      0.024994     -0.014380
O	      6.47006      6.42319      6.04475         0.034518      0.041726      0.048136
O	      6.56555      4.03258      8.23716        -0.006157      0.000572      0.037551
O	      8.70502      6.13757      8.22395         0.022481      0.018654      0.105766
O	      2.08711      6.12073      6.00473        -0.075978      0.067616     -0.004118
O	      4.42200      8.23241      6.02226        -0.004795      0.017063     -0.020684
O	      4.25423      6.24059      8.08205        -0.014342      0.010810      0.005660
O	      6.35863      8.34775      8.00001         0.018522      0.007463      0.014692
O	      6.34419      6.04431     10.13889        -0.006521     -0.029181     -0.017312
O	      8.74841      8.23265     10.18527         0.022660      0.027083      0.015231
