# total energy = -207.70414921 eV
 
CRYSTAL
PRIMVEC
-0.018704 6.247878 6.301831 
6.162039 0.018980 6.263889 
4.135082 4.167183 -0.014334 
PRIMCOORD
36 1
Li	      8.21803      8.32353     12.39473         0.027362     -0.011493     -0.116650
Li	      8.24318     10.25004     10.46131         0.023794     -0.043739      0.002917
Li	      6.30393      8.34078     10.37581         0.046575     -0.048532     -0.061841
Li	      8.13298      4.21571      8.38506        -0.033866      0.061144      0.004436
Li	      6.24406      4.19075      6.30219         0.057841     -0.012738      0.048115
Li	      6.04124      4.25768     10.37963        -0.073786      0.012544      0.039865
Li	      8.16417      6.37124     10.43389         0.008876      0.076974     -0.070040
Li	      8.29742      8.33495      8.57205         0.011475     -0.006447      0.050984
Li	      6.15806      6.24905      8.50180         0.042410      0.028370      0.074769
Mn	      4.08604      8.31919      8.37831        -0.044006     -0.037526      0.082887
Mn	      6.14826      2.17818      8.36407        -0.148534      0.118864     -0.012595
Mn	      4.09901      4.17445      4.19200        -0.018997     -0.031923      0.080996
Mn	      8.22184      6.24682      6.28587         0.127637     -0.045355      0.007940
Fe	      6.15921      6.22974     12.33197        -0.109842     -0.078700      0.036239
Cu	      6.21356     10.37235      8.40434         0.050905      0.016855      0.022054
Ni	      6.17922      6.25961      4.18754         0.003819      0.031910      0.066825
Ni	      6.16373      8.33857      6.27831        -0.026396     -0.050432     -0.002733
Ni	      4.09086      6.28208      6.27763         0.058484      0.054043     -0.052274
O	      8.21166      8.34264     10.47901        -0.032635     -0.030293     -0.013465
O	      2.00357      2.03482      2.11826        -0.028598     -0.048430     -0.014038
O	      4.05183      4.11998      2.21213         0.148122      0.032351      0.062754
O	      4.11394      2.23260      4.26955         0.074105      0.033257      0.209910
O	      6.03377      4.20601      4.09200        -0.031167     -0.073547      0.066002
O	      6.07179      2.03684      6.44292         0.005764      0.045577      0.052601
O	      8.30834      4.37166      6.22517        -0.070471      0.079535      0.023082
O	      2.20057      4.14423      4.23587         0.036778      0.059780     -0.094629
O	      4.11342      6.11765      4.10521        -0.077555     -0.042369     -0.119801
O	      4.12657      4.14442      6.12878         0.091500     -0.061463     -0.059660
O	      6.27688      6.26759      6.26465         0.046330     -0.071620      0.090144
O	      6.18434      3.98725      8.37350         0.024238     -0.149874     -0.015911
O	      8.36004      6.29460      8.21584         0.041264     -0.022084     -0.019218
O	      2.00837      6.21230      6.42879        -0.077782      0.140748     -0.048027
O	      4.08792      8.36840      6.31864         0.006294      0.054382     -0.201462
O	      4.12088      6.41108      8.32224        -0.214529     -0.083564      0.098914
O	      6.02063      8.37355      8.35549         0.064393      0.068784      0.053210
O	      6.18481      6.26373     10.50608        -0.009798      0.035011     -0.272301
