# total energy = -208.70833162 eV
 
CRYSTAL
PRIMVEC
0.038207 6.171217 6.324927 
6.177350 0.023444 6.339776 
4.112168 4.117958 0.021704 
PRIMCOORD
36 1
Li	      4.20438      8.20753      8.46605         0.008385     -0.017429      0.014302
Li	      6.18326      8.22870     10.49953        -0.039694      0.022596     -0.062893
Li	      2.03339      4.13900      2.18804         0.016076     -0.012594      0.082177
Li	      4.07998      4.10539      4.28405         0.033263     -0.025794      0.056389
Li	      4.09508      2.13076      6.31032         0.005768      0.005551     -0.081516
Li	      4.13917      8.23170      4.24269        -0.008654      0.013085      0.028729
Li	      4.19528      6.18067      6.33710         0.023373     -0.012579      0.000811
Li	      8.24586      8.23015      8.43931         0.025411      0.013278     -0.034353
Li	      6.21164      6.21412      8.41251        -0.020055      0.013955     -0.069219
Mn	      6.21789     10.25472      8.45424         0.076123      0.038804      0.136531
Mn	      4.17645      6.20078     10.51704        -0.008278     -0.054026     -0.160963
Mn	      6.11801      4.14487      6.38481         0.018173     -0.009617      0.108705
Mn	      8.29778      6.21186     10.52177        -0.113233      0.060007     -0.179316
Fe	      4.12242     10.24084      6.34772        -0.074344      0.179613      0.017975
Cu	     10.27779      6.22315      8.47257        -0.167733      0.128199      0.126132
Cu	      6.22546      8.18944      6.38441         0.072451     -0.065907      0.015302
Ni	      2.11911      8.24416      6.33294         0.043689      0.023257      0.038176
Ni	      2.07427      2.10962      4.24831        -0.041348      0.023397      0.000374
O	      4.27039      4.11459      6.29580        -0.191971      0.015206     -0.010532
O	      8.29553      6.16680      8.64524        -0.155005      0.025834      0.118007
O	      1.98762      1.95523      2.16189         0.183471      0.021779     -0.023412
O	      4.21728      4.17808      2.03109        -0.101490     -0.135552     -0.019395
O	      4.09297      1.90315      4.21568         0.132021      0.027161     -0.008153
O	      6.30716      4.12509      4.36239        -0.065142     -0.108354      0.015897
O	      6.19170      2.12460      6.44209        -0.037150     -0.199535     -0.112558
O	      8.22931      4.11814      6.21670        -0.036410      0.148384     -0.013482
O	      2.08869      4.21349      4.34397        -0.046901      0.037503     -0.073467
O	      4.04873      6.20434      4.13618         0.096974     -0.018824      0.124055
O	      6.16649      6.04681      6.31516         0.055206      0.220598      0.044989
O	      6.22268      4.08665      8.26801        -0.023875      0.100971     -0.080958
O	      2.04567      6.25696      6.17008         0.130878     -0.139098      0.030835
O	      4.14009      8.31942      6.38784         0.088318     -0.223505     -0.026591
O	      4.04548      6.16977      8.63336         0.086185     -0.012403      0.034886
O	      6.21184      8.36418      8.32530         0.018540     -0.109372      0.033771
O	      6.16817      6.22214     10.61897         0.023840     -0.056839     -0.026553
O	      8.25753      8.23741     10.60969        -0.006862      0.082251     -0.044683
