# total energy = -208.38734425 eV
 
CRYSTAL
PRIMVEC
0.027303 6.415426 6.124669 
6.172452 0.015575 6.136783 
4.112889 4.282613 0.012591 
PRIMCOORD
36 1
Li	      0.10171      6.38446      6.08640        -0.102510     -0.072339     -0.031768
Li	      2.10587      8.45621      6.10511         0.039612      0.045395     -0.034012
Li	      2.06279      6.41834      7.97724         0.005540      0.032930      0.047325
Li	      6.20742      8.47539     10.30248        -0.041781     -0.033892      0.006798
Li	      2.11590      4.23361      2.03364        -0.008440     -0.060263      0.017513
Li	      4.16288      2.10892      6.12415        -0.014235     -0.028017     -0.043212
Li	      4.14718      8.60660      4.25803        -0.023321      0.032109      0.044966
Li	      2.01817      4.42466      6.09907        -0.014916      0.006097     -0.029878
Li	      4.02745      6.50239      6.09993         0.057014      0.085652     -0.033964
Mn	      8.26555     10.66403     10.26403         0.110103     -0.092679     -0.083903
Mn	      0.05921      2.12713      2.01376         0.058556     -0.074169      0.173063
Mn	      6.19046      6.45136      4.15160        -0.054292     -0.014544     -0.145432
Mn	      4.07563      4.33203      8.14215        -0.055188      0.066338      0.160362
Fe	      4.18625      8.67182      8.05492        -0.022685     -0.109965      0.290660
Cu	      4.11828      4.27524      4.16473        -0.092402     -0.020629     -0.068142
Cu	      6.18771      4.27046      6.14455         0.231722     -0.099527      0.119252
Cu	      2.01547      6.44022      4.17953        -0.010442      0.032749     -0.255427
Ni	      6.19380      6.44096      8.12637         0.033216      0.031096      0.005257
O	      4.18742      4.26058      6.19892        -0.097992     -0.017001     -0.132740
O	      2.06458      6.43175      6.00169        -0.002226      0.001799      0.021904
O	      4.12320      8.55037      6.25734        -0.035913     -0.027885     -0.402958
O	      2.08022      2.14230      2.17667        -0.077147      0.010941     -0.000429
O	      4.13956      4.22355      2.18210        -0.017867      0.104923     -0.078463
O	      4.03588      1.91972      3.99259         0.073073     -0.015406      0.129769
O	      6.19359      4.41122      4.15540        -0.211282      0.007068     -0.055473
O	      6.17910      2.22446      6.28572        -0.008215     -0.007717     -0.106244
O	      8.17413      4.27611      6.00917         0.094464      0.018078      0.043778
O	      2.18264      4.07775      4.13315        -0.002311      0.032540     -0.026720
O	      4.26856      6.53643      3.97961        -0.076673      0.032923      0.112405
O	      6.19616      6.31273      6.05027        -0.002318      0.015189     -0.002451
O	      6.05881      4.36278      8.10879        -0.100037      0.037745      0.132848
O	      8.27856      6.61738      8.34146         0.047408      0.059769      0.014321
O	      4.11378      6.32066      8.25465        -0.113702     -0.091324     -0.069197
O	      6.23449      8.51378      8.15258         0.171104      0.073517     -0.003941
O	      6.06468      6.42075     10.17756         0.260148     -0.009393      0.178284
O	      8.20570      8.73449     10.09217         0.003936      0.047892      0.105851
