# total energy = -207.93934714 eV
 
CRYSTAL
PRIMVEC
0.004819 6.228067 6.188145 
6.236643 0.036233 6.156476 
4.185668 4.158853 -0.003629 
PRIMCOORD
36 1
Li	      2.10983      6.21537      8.22415         0.018019     -0.021217     -0.014166
Li	      4.23507      8.26877      8.24882         0.052275     -0.042134      0.003477
Li	      4.19572      6.21278     10.22509         0.006562     -0.013873      0.010284
Li	      2.09522      4.15619      2.17404        -0.013284      0.029736      0.004281
Li	      0.11035      4.20123      4.10099         0.125021     -0.003742     -0.030820
Li	      8.28757      6.20042     10.24298         0.014592     -0.020363     -0.057229
Li	      2.01284      4.24721      6.10961        -0.013362      0.023859     -0.079080
Li	      8.31446      8.37056      8.31692        -0.009748     -0.022431      0.055614
Li	      6.20136      6.29007      8.33813        -0.021757      0.004438      0.055408
Mn	      6.31070      8.29007     10.19612        -0.007359     -0.045762      0.065739
Mn	      4.19890      6.23124      2.10167        -0.118987      0.042743      0.030042
Mn	      6.26180      4.17795      6.19709        -0.002052      0.016415      0.022880
Mn	      4.10215      6.29349      6.25883         0.000253     -0.003862     -0.040780
Fe	      8.26079      6.24372      6.20977         0.029047      0.097870     -0.018025
Ni	      4.25839     10.28627      6.18849         0.000850     -0.006245      0.002118
Ni	      2.15274      8.29921      6.17691        -0.048510      0.055930      0.002523
Ni	      2.11189      2.13920      4.03208         0.033321     -0.121543     -0.002071
Ni	      4.10766      4.16659      4.04464         0.054741      0.027968     -0.038630
O	      1.91972      2.06461      2.03091        -0.026938     -0.003339     -0.032601
O	      4.18357      4.31607      1.96974         0.008452      0.036577      0.032697
O	      4.24766      2.12080      4.21543         0.087985     -0.136626     -0.083501
O	      6.22078      4.08754      4.24097         0.086610     -0.051917      0.022289
O	      6.21379      2.18600      6.20947        -0.063128      0.103572      0.007783
O	      8.21029      4.23574      6.15486        -0.122275     -0.002964      0.023514
O	      2.13600      4.10172      4.15418        -0.162027      0.169792     -0.038522
O	      4.21903      6.23001      4.01850        -0.089947      0.120669     -0.011306
O	      4.29435      4.24909      6.14110         0.023010      0.062571      0.109580
O	      6.22558      6.11166      6.14526        -0.112688     -0.046418      0.099743
O	      6.24478      4.06524      8.09790        -0.006627     -0.000467     -0.018938
O	      8.48050      6.29021      8.10385         0.052690      0.019017      0.194269
O	      2.21516      6.24768      6.17423         0.159734     -0.143689      0.017560
O	      4.16163      8.22475      6.17239         0.173720     -0.172309      0.011966
O	      4.18215      6.25262      8.05562        -0.011883     -0.010348      0.002045
O	      6.24745      8.31878      8.40684        -0.008830      0.016956     -0.006129
O	      6.24455      6.39463     10.38515        -0.020546      0.030307     -0.156290
O	      8.16225      8.36159     10.32838        -0.066934      0.010830     -0.145726
