# total energy = -215.26373793 eV
 
CRYSTAL
PRIMVEC
0.081975 6.221628 6.267725 
6.249718 0.045935 6.302767 
4.197969 4.202708 -0.000704 
PRIMCOORD
36 1
Li	      6.27330      0.19482      6.34562        -0.006600      0.025586      0.008407
Li	      2.02153      2.02381      0.06097         0.013281     -0.021231      0.092466
Li	      6.18941      4.23868      2.03175        -0.038371     -0.045008     -0.021710
Li	      6.38394      8.31409     10.54247        -0.062762     -0.051847     -0.003866
Li	      6.27767      2.03220      8.26574        -0.021372     -0.067027     -0.033213
Li	      2.18117      4.17130      2.05098         0.019926     -0.044528     -0.053155
Li	      8.49198      6.25236      6.36599         0.099632     -0.029633      0.016322
Li	      8.34498      6.31069     10.52613         0.062792      0.050659      0.056747
Li	      2.14119      4.23529      6.26928        -0.029056      0.067857      0.018511
Mn	      4.12793      2.17345      2.08777         0.108889      0.087436     -0.027843
Mn	      0.10995      4.16043      4.16992        -0.079768     -0.125152      0.066783
Mn	      4.17380      6.26675      6.27608        -0.424184      0.073761     -0.156274
Mn	      6.40423      6.33143      8.33680         0.010858      0.017029      0.028907
Fe	      8.37040      4.21965      4.32921         0.027248      0.205815     -0.179167
Fe	      6.33169      4.07425      6.31532         0.018199     -0.020754      0.030198
Co	      2.10282      2.09106      4.18374        -0.037086     -0.042566     -0.211646
Cu	      8.40325      8.33617      8.36246        -0.043643      0.011567      0.035890
Ni	      4.17547      4.18657      4.16388        -0.042274     -0.053092     -0.140734
O	      8.29800      6.40231      8.38719        -0.061817     -0.064490     -0.004243
O	      2.21367      2.08481      2.24138        -0.170041     -0.063813     -0.208009
O	      4.19454      4.05479      2.13578        -0.016020     -0.072575     -0.056296
O	      4.05123      2.08190      4.07543         1.460294     -0.150487     -0.073846
O	      6.31126      4.32056      4.22657         0.058020     -0.235862      0.044904
O	      6.26806      2.19423      6.28335         0.013095     -0.077654      0.021004
O	      8.31806      4.24725      6.20725         0.032237      0.022978      0.178194
O	      2.05425      4.03197      4.21691        -0.133603      0.228745      0.022493
O	      4.32933      6.32467      4.30150        -1.333538      0.159946      0.249110
O	      4.24569      4.31406      6.28292         0.042681      0.128975      0.055891
O	      6.17269      6.23065      6.15131         0.087289      0.044959      0.320634
O	      6.40860      4.37315      8.30064         0.088323      0.116018     -0.001953
O	      2.33426      6.24555      6.26031         0.172248     -0.019279      0.057207
O	      4.21784      8.21300      6.40057         0.002005     -0.078581      0.062039
O	      4.33440      6.31499      8.27215         0.086948      0.055060      0.026936
O	      6.15952      8.25809      8.42245         0.024060      0.002206     -0.057273
O	      6.27210      6.15303     10.53717         0.093769      0.033278     -0.119443
O	      8.58278      8.46224     10.33410        -0.021656     -0.068298     -0.043970
