# total energy = -215.11884698 eV
 
CRYSTAL
PRIMVEC
0.024522 6.147577 6.282535 
6.422830 0.032768 6.272484 
4.290506 4.100266 0.014669 
PRIMCOORD
36 1
Li	      2.20914      8.09125      6.20939        -0.028735     -0.033696      0.023756
Li	      2.12922      0.01903      2.07540         0.008801      0.006253     -0.032885
Li	      8.61737     10.21707     10.45718         0.028089     -0.014477     -0.003764
Li	      4.31355      6.13149      2.27047         0.009569      0.024616     -0.018843
Li	      4.30493      4.22148      4.15246        -0.060954      0.008942      0.034326
Li	      4.26468      8.10111      4.24374         0.051815      0.109688     -0.033542
Li	      2.20084      6.19428      4.26278         0.005171     -0.144358     -0.026936
Li	      4.26705      6.19449      6.16846         0.030950     -0.040485      0.059098
Li	      6.40153      6.18010      8.47798         0.009893     -0.050853      0.036171
Mn	      0.07335      6.11138      6.24533         0.011497     -0.071966      0.066649
Mn	      4.30731      2.12422      6.22978        -0.072361      0.074671      0.297347
Mn	      6.50426      4.12747      6.28564         0.008087      0.117301      0.280988
Mn	      8.56396      8.27396      8.42983         0.149805      0.018285     -0.301273
Fe	      4.31341      8.09857      8.41429        -0.173996      0.102571     -0.128602
Fe	      2.14979      4.12287      2.18810        -0.010425      0.012313      0.130483
Co	      6.47677      8.19654     10.47667         0.251661      0.114869     -0.213446
Cu	      6.26042      6.15460      4.17441        -0.079945     -0.296187      0.074288
Cu	      2.10303      4.12835      6.14915         0.022197     -0.027983      0.093170
O	      4.27808      6.15597      4.20440         0.168145     -0.018808      0.016004
O	      1.96756      6.04792      6.29148        -0.164630      0.067546     -0.001197
O	      2.26630      2.07627      2.23216         0.018562     -0.080942     -0.197083
O	      4.18298      4.05679      1.94857         0.072949      0.077398      0.006597
O	      4.49788      2.10331      4.25737        -0.111670      0.065019     -0.019876
O	      6.46649      4.06478      4.37581        -0.099357      0.311392     -0.208505
O	      6.50794      1.96985      6.15062         0.090266     -0.032755      0.052818
O	      8.59131      4.22473      6.34712         0.114935      0.009849     -0.121731
O	      2.16740      4.07842      4.10478         0.070136      0.334801     -0.003675
O	      4.48716      4.08970      6.41467        -0.005472     -0.016798     -0.033120
O	      6.49456      6.27417      6.11170        -0.077134     -0.075868      0.143972
O	      6.56948      4.13554      8.22296         0.023754      0.012579     -0.159928
O	      8.56719      6.23661      8.21103         0.059936      0.067612     -0.033279
O	      4.21212      8.28271      6.37906        -0.046763      0.152773     -0.067253
O	      4.29441      6.14642      8.36837        -0.011775     -0.205756      0.026851
O	      6.32369      8.21008      8.53193        -0.081596     -0.000842     -0.014529
O	      6.44012      6.24786     10.61930        -0.089233     -0.665552      0.070404
O	      8.43198      8.20861     10.32696        -0.092170      0.088850      0.206542
