# total energy = -215.76868483 eV
 
CRYSTAL
PRIMVEC
0.005054 6.276643 6.187785 
6.256367 0.009062 6.183820 
4.168042 4.178850 0.009148 
PRIMCOORD
36 1
Li	      8.36843      8.31019     12.26624        -0.012516     -0.027861     -0.089626
Li	      8.37552     10.36728     10.32759         0.073093     -0.071491     -0.001840
Li	      6.35839      8.32218     10.32228         0.118771     -0.091619      0.010931
Li	      4.19683      6.22192      2.16060         0.033834     -0.019737      0.009325
Li	      4.11001      4.28576      4.12423        -0.023184      0.031558      0.008976
Li	      4.16033      8.30060      4.22522        -0.011432      0.043539      0.027170
Li	      2.14081      6.32762      4.19023        -0.034964      0.040191     -0.006382
Li	      2.05329      4.26164      6.08701        -0.049160      0.009502     -0.044275
Li	      4.10125      6.29096      6.09177        -0.023491     -0.002597      0.007650
Mn	      0.05486      6.25887      6.12322         0.006487      0.021892     -0.135304
Mn	      6.17616      6.32640      4.14413        -0.066779      0.064258      0.120627
Mn	      6.28853      4.15874      6.13680        -0.026431     -0.000614      0.052818
Mn	      6.23006      6.30242      8.34434         0.050825     -0.005276     -0.012431
Fe	      4.16905      2.10417      2.05999        -0.020600     -0.087319      0.088303
Fe	      4.20182      2.12021      6.10196        -0.064104      0.025239      0.022335
Co	      8.34108      8.35508      8.31623         0.117834      0.067788     -0.099807
Ni	      6.26406     10.43942      8.27351         0.015697     -0.071432      0.068661
Ni	      2.10702      4.18638      2.12192        -0.052332      0.064158      0.016844
O	      2.14008      2.05257      2.19837        -0.040503      0.015297      0.003347
O	      4.18288      4.12278      1.96397        -0.008084      0.078123      0.019764
O	      4.03466      2.12844      4.12035        -0.037330     -0.016456     -0.106674
O	      6.23730      4.29614      4.21942         0.045769     -0.002295     -0.034802
O	      6.18942      2.01083      6.17914         0.136403     -0.032882      0.011936
O	      8.37682      4.24922      6.24023         0.037883     -0.044386     -0.151427
O	      2.08293      4.03108      4.09223        -0.008712     -0.039479      0.183303
O	      4.31510      6.27439      4.13560         0.035891     -0.004373      0.001390
O	      4.26976      4.10819      6.36352         0.009208      0.074509     -0.095949
O	      6.32341      6.28455      6.08521        -0.056098      0.068181     -0.046668
O	      6.29141      4.32702      8.08694        -0.085639      0.048748     -0.001586
O	      8.18331      6.32225      8.21178        -0.045110     -0.078385      0.011674
O	      1.95013      6.29040      6.23788        -0.027144     -0.009723     -0.102623
O	      4.12108      8.51418      6.27924        -0.010935     -0.029292     -0.053251
O	      4.24961      6.28413      8.22767         0.040062      0.090557     -0.011294
O	      6.20224      8.29296      8.28562        -0.020066     -0.070275      0.062352
O	      6.27212      6.26229     10.42804        -0.014473      0.027180      0.075207
O	      8.36000      8.37414     10.10275         0.017328     -0.065228      0.191328
