# total energy = -218.44104365 eV
 
CRYSTAL
PRIMVEC
-0.010826 6.482203 6.138069 
6.154993 -0.000338 6.128249 
4.091880 4.303808 0.011064 
PRIMCOORD
36 1
Li	      6.12411      0.09848      6.08857         0.041325     -0.049222      0.000565
Li	      4.08481      2.15573      2.03960         0.013078      0.012548     -0.045503
Li	     10.17393      6.48877      8.18198        -0.018294     -0.032792      0.002351
Li	      4.03728      4.41114      4.11757        -0.004712      0.047882      0.004924
Li	      8.28906      6.41766      6.21160        -0.030012     -0.065898     -0.006761
Li	      6.15225      4.26853     10.16215        -0.025645     -0.026067      0.081095
Li	      8.17584      6.47344     10.12488        -0.013239     -0.027758      0.062572
Li	      4.12678      4.30861      8.19195         0.005101      0.052805     -0.005611
Li	      6.27141      6.37289      8.20587        -0.022321     -0.013010     -0.014724
Mn	      6.11120      8.60127     10.22083         0.075109     -0.101392      0.137381
Mn	      8.22737      4.38593      8.17940         0.077491     -0.015596      0.055043
Mn	      2.05596      2.20026      4.09898        -0.004828      0.019576      0.014661
Mn	      4.10774      6.48578      6.16392        -0.214044      0.265084     -0.042071
Fe	      5.98844      4.27897      2.04401         0.053335      0.205016     -0.024163
Fe	      4.17155      6.45078     10.15049         0.054033     -0.022661      0.183043
Co	      2.05807      8.63736      6.14858         0.094902     -0.055959      0.030977
Co	      2.04241      4.35866      6.15263        -0.097175      0.028601     -0.056622
Cu	      6.10780      4.25972      6.20020        -0.064714     -0.053471      0.006416
O	      6.30520      4.30334      8.12395        -0.021517     -0.022591      0.093973
O	      2.02089      2.17405      2.15688        -0.004726     -0.007241     -0.003217
O	      4.06013      4.30953      2.01881        -0.155865     -0.026866      0.050568
O	      4.06831      2.01681      4.15468         0.017909      0.063965     -0.036253
O	      6.16650      4.30524      4.11717        -0.042028     -0.060566     -0.052860
O	      6.20070      2.09105      5.98419        -0.102111      0.102073     -0.136545
O	      8.18453      4.21269      6.18518        -0.067352      0.156160      0.063387
O	      2.06890      4.25201      3.99464         0.005576      0.093173     -0.050836
O	      4.17123      6.45592      4.25293         0.061836      0.005614      0.019192
O	      4.08688      4.54362      6.18975         0.083120     -0.109301      0.000934
O	      6.04807      6.58394      6.07027         0.014488     -0.034616      0.074068
O	      8.23049      6.23328      8.16351         0.000347      0.025908     -0.030464
O	      2.15024      6.48494      6.17842         0.086547     -0.170118     -0.044706
O	      4.09296      8.42122      6.13776         0.045367     -0.028529      0.000997
O	      3.97830      6.50959      8.15049         0.052738      0.023074     -0.154579
O	      6.08561      8.77972      8.28208         0.013804     -0.123956     -0.097806
O	      6.08181      6.58975     10.19294         0.086466      0.049533     -0.015539
O	      8.11421      8.76502     10.19595         0.006010     -0.103401     -0.063886
