# total energy = -216.68266741 eV
 
CRYSTAL
PRIMVEC
-0.064111 6.258010 6.031854 
6.522580 -0.050279 6.019113 
4.338949 4.154904 -0.025077 
PRIMCOORD
36 1
Li	      0.22390      6.14001      5.87948        -0.002167      0.004598     -0.079252
Li	      2.19396      8.18943      5.92414         0.004980      0.065549     -0.026911
Li	      8.79721     10.23683     10.09894         0.062110      0.005155      0.030480
Li	      6.61970      8.22086     10.09243         0.078839     -0.009532     -0.002181
Li	      6.39474      6.25090      4.04537        -0.008735      0.007206      0.037823
Li	     10.65384      8.37423     10.20079        -0.084077     -0.006863      0.001329
Li	      2.08777      6.28959      4.15394        -0.011120      0.024184     -0.050852
Li	      1.97263      4.32622      5.95846        -0.048310     -0.110543     -0.006178
Li	      4.07163      6.35558      5.94985        -0.044981     -0.005675     -0.026701
Mn	      4.30326      8.25686      7.98321         0.025786     -0.002140      0.008925
Mn	      6.52135      2.05003      8.01060         0.074831      0.010343      0.074894
Mn	      2.11706      4.15094      2.01894         0.018173     -0.116804      0.036494
Mn	      4.35177      4.16802      4.01725         0.036061      0.017255     -0.016971
Fe	      4.30746      1.99888      5.92950        -0.047431      0.048576     -0.012997
Fe	      8.59028      8.41709      8.13694         0.013304     -0.057721     -0.141267
Co	      6.45855      4.15049      5.98877         0.028194      0.156924     -0.071663
Co	      6.46568      6.25021      8.07749        -0.104809      0.030142     -0.216866
Ni	      2.12265      6.24477      7.99504         0.091047     -0.013697      0.097590
O	      2.10924      6.24601      6.07269         0.051999     -0.021271      0.190362
O	      1.97138      2.19150      1.98029        -0.048738      0.188303     -0.007983
O	      4.40915      4.02611      2.07013        -0.031457     -0.013662      0.004819
O	      4.31486      2.17803      3.97237        -0.002481      0.022185     -0.101627
O	      6.28379      4.15034      4.04824        -0.010646     -0.017974     -0.052440
O	      6.36741      2.18001      6.07027        -0.012851      0.005021      0.013249
O	      8.42206      4.17839      6.06162        -0.034433     -0.080572      0.003453
O	      2.39398      4.14055      3.91587         0.061430      0.040731      0.042003
O	      4.34805      6.07645      3.89562         0.004116     -0.035297     -0.006733
O	      4.48163      4.10270      5.96652         0.035100      0.027502     -0.040027
O	      6.62184      6.09454      6.12326         0.006057     -0.058165      0.120871
O	      6.36064      4.24859      7.93350         0.002898      0.009092     -0.039642
O	      8.84899      6.12565      7.95020        -0.073641      0.064878      0.060962
O	      4.29104      8.32077      6.13110        -0.020081      0.019206      0.029278
O	      4.20279      6.27578      8.08264         0.028100      0.040319     -0.120940
O	      6.62169      8.18645      7.97053        -0.077233     -0.231030      0.025973
O	      6.49258      6.19174      9.89211         0.039270      0.026219      0.080670
O	      8.67461      8.28971      9.95694         0.000895     -0.032445      0.162055
