# total energy = -218.84071802 eV
 
CRYSTAL
PRIMVEC
0.041129 6.487398 6.162177 
6.329783 -0.006277 6.209792 
4.207506 4.344691 0.008017 
PRIMCOORD
36 1
Li	      4.10982      0.13831      4.13981         0.034107     -0.031249      0.034900
Li	      6.35074      8.69967     10.24065        -0.003544      0.017361      0.055914
Li	      6.41036      6.35421      4.35541        -0.066620      0.015418     -0.059252
Li	      8.23323      6.53830      6.15779         0.154349      0.078027     -0.007201
Li	      6.32862      4.58186      6.15506        -0.051274     -0.103960      0.008129
Li	      6.41675      8.45700      6.24777         0.083206      0.100787     -0.045240
Li	      4.45105      6.38877      6.26427        -0.095754     -0.096264     -0.048515
Li	      4.22397      4.29834      8.14746         0.023213     -0.003412     -0.085870
Li	      6.24915      6.63571      8.12381        -0.024306      0.049702      0.118373
Mn	      8.44818      8.62494     12.34746        -0.054449     -0.044360     -0.144206
Mn	      4.28647      8.59278      8.27464         0.029385      0.165434      0.060419
Mn	     10.54440      6.52196      8.28843        -0.066889     -0.046240      0.104282
Mn	      8.40942      4.44575      8.24120         0.086194     -0.009926      0.028771
Fe	      6.37230      6.48519     12.23878        -0.037624      0.047201      0.197941
Fe	      6.47846     10.69242      8.29907        -0.166587      0.111521     -0.161764
Co	      4.27317      4.28307      4.34754         0.396380     -0.401983     -1.113826
Co	      4.24671      8.66512      4.14226         0.048582     -0.055557     -0.095789
Co	      2.14965      6.50054      4.11420         0.025399      0.007511     -0.026986
O	      6.34416      6.52314      6.21882        -0.022590     -0.070315      0.056234
O	      2.04957      2.06591      1.95960        -0.054254     -0.022812      0.102804
O	      4.15020      4.46527      2.07891        -0.019670      0.185551     -0.279485
O	      4.19601      2.25950      3.98366        -0.043116      0.156048      0.092303
O	      6.25796      4.34126      4.04848        -0.283604      0.008338      0.043679
O	      6.42847      2.03967      6.33167         0.112564     -0.012068     -0.007600
O	      8.53825      4.36695      6.29531        -0.143428     -0.000384      0.002295
O	      2.14982      4.54587      3.97218        -0.128860      0.011431     -0.051607
O	      4.11594      6.47792      4.01199         0.022189      0.187714     -0.020349
O	      4.24507      4.30225      6.09445        -0.094777      0.095019      1.137258
O	      6.48229      4.10311      8.25569         0.015713     -0.105906      0.065989
O	      8.62299      6.57902      8.37373         0.134299     -0.026713      0.115479
O	      2.03904      6.41614      6.10819         0.021887      0.119284      0.022347
O	      4.10459      8.76386      6.27764         0.043708     -0.018433     -0.001417
O	      4.16044      6.53288      8.27202         0.184770     -0.059683      0.023076
O	      6.24568      8.77484      8.22129        -0.154881     -0.131371      0.042493
O	      6.51434      6.43586     10.31298         0.084630     -0.046620     -0.142790
O	      8.50754      8.45283     10.44369         0.011654     -0.069092     -0.020788
