# total energy = -213.00405508 eV
 
CRYSTAL
PRIMVEC
-0.001392 6.274742 6.226913 
6.338645 -0.006324 6.231744 
4.206683 4.167211 0.015206 
PRIMCOORD
36 1
Li	      6.28904      0.06465      6.18814        -0.019693     -0.003255      0.035355
Li	      8.42153      8.32834     12.43736         0.026390     -0.023767      0.033637
Li	      8.51545     10.34551     10.51244        -0.013050      0.042881      0.017861
Li	      6.43099      8.25913     10.53478        -0.066126      0.053621      0.023858
Li	      0.11126      2.02252      1.97082         0.033519     -0.052111      0.022006
Li	      2.13935      4.09114      1.96868         0.053164     -0.022859      0.019170
Li	      6.45277      4.06138      6.22706        -0.000761     -0.007907     -0.026409
Li	      8.35485      6.38020     10.50931         0.027927     -0.021923      0.020525
Li	      4.10715      6.34980      6.20978        -0.031920     -0.000948     -0.047329
Mn	      6.29087      6.23718      4.14262        -0.035519     -0.140861     -0.065889
Mn	      4.23675      4.19389      4.17078        -0.005004      0.047684     -0.244735
Mn	      8.48628      6.18234      6.25563         0.254185     -0.145145     -0.098533
Mn	      6.32249      6.25138      8.33268        -0.045504     -0.064578      0.099788
Fe	      2.02839      4.29642      6.21074         0.100167     -0.030812     -0.108036
Fe	      8.44435      8.38134      8.43173         0.015993      0.003287     -0.213855
Cu	     10.47768      8.38708     10.43511        -0.031555     -0.160065     -0.000450
Ni	      2.08822      0.05323      2.04572        -0.000369     -0.064084      0.034267
Ni	      4.16577      8.35780      8.25212         0.018542      0.044127      0.032787
O	      8.39092      8.33656     10.31979         0.108939      0.025323      0.174307
O	      2.17460      2.05854      2.06973        -0.116830      0.120270      0.024637
O	      4.26046      4.09977      2.27007        -0.100276      0.090117      0.071203
O	      4.10264      2.16613      4.24361         0.005384     -0.209227      0.154905
O	      6.20827      4.30166      4.14013         0.173202      0.075796      0.079438
O	      6.13589      2.09430      6.24698        -0.183085     -0.006429      0.024964
O	      8.43754      4.34036      6.23997        -0.016989      0.125745      0.016242
O	      2.22086      4.04668      4.19525        -0.209566      0.026551     -0.029925
O	      4.33503      6.17107      4.16738         0.020361      0.247382     -0.001765
O	      4.16035      4.06977      6.16860        -0.025275      0.006656      0.137821
O	      6.44484      6.29514      6.32357        -0.019094      0.036104      0.043568
O	      6.25562      4.31747      8.39222         0.055245      0.062704     -0.139096
O	      8.29979      6.34631      8.19109        -0.022051     -0.054962      0.017069
O	      2.12165      6.19406      6.27650        -0.010359      0.081337     -0.164753
O	      4.28546      8.35748      6.16348        -0.073358     -0.028662      0.066020
O	      4.34066      6.23824      8.26425         0.080275     -0.022922      0.018925
O	      6.32570      8.26100      8.26793         0.086349     -0.075401      0.048012
O	      6.36795      6.25549     10.21973        -0.033255      0.046334     -0.075591
