# total energy = -212.76305480 eV
 
CRYSTAL
PRIMVEC
-0.012939 6.261137 6.223729 
6.210702 -0.014680 6.225184 
4.138933 4.173498 -0.008357 
PRIMCOORD
36 1
Li	      4.10442      2.09924      2.09213         0.043927     -0.030730     -0.006159
Li	      6.20261      2.04060      4.18774        -0.038115     -0.050664      0.003018
Li	      4.13130      6.25120      2.12177        -0.010432      0.007866      0.002126
Li	      2.04224      4.10400      2.13435        -0.018711     -0.050523      0.012285
Li	      6.13149      6.28619      4.12392         0.067049      0.035834     -0.016534
Li	      6.22161      4.09905     10.26994         0.025679      0.038008      0.015686
Li	      8.35724      6.20275     10.23618        -0.032960     -0.006083      0.034085
Li	      4.23876      6.30337      6.07604         0.012376      0.003401     -0.041390
Li	      6.23382      6.25137      8.32476         0.019582     -0.011710      0.038445
Mn	      4.12961     10.39273      6.18877        -0.232912     -0.080345     -0.094913
Mn	      4.16248      4.19903      4.11145        -0.037631     -0.089572     -0.009703
Mn	      2.04975      4.15619      6.18339         0.081315      0.256668     -0.021652
Mn	      8.26300      8.34212      8.33167         0.108679     -0.009826      0.015332
Fe	      2.04912      8.24266      6.24924         0.047652     -0.004429     -0.363079
Fe	      4.12692      0.07196      4.14214        -0.001950      0.038006      0.219419
Cu	      2.06910      0.03024      2.10437        -0.108953     -0.031854      0.026692
Cu	      8.27725      6.27166      6.26206         0.066300     -0.028825      0.011499
Cu	      6.18111      4.24239      6.31365         0.020728      0.023709      0.003677
O	      6.25796      6.47290      6.26957        -0.088432     -0.132255     -0.004633
O	      6.04886      4.21066      8.20834        -0.030135      0.030342      0.173870
O	      8.24788      6.44810      8.21503        -0.003047      0.061487      0.002779
O	      2.12224      1.98897      1.93257         0.004332     -0.028563      0.284460
O	      4.20935      4.10747      1.94772        -0.070469     -0.002658     -0.000021
O	      4.15961      2.11456      4.27497        -0.040794      0.105902     -0.108081
O	      6.19866      4.17716      4.41574        -0.058116      0.013210     -0.252502
O	      6.24231      1.86554      6.23733        -0.050125     -0.019252      0.005815
O	      8.37969      3.96595      6.22056         0.012890     -0.008638      0.027583
O	      2.18631      4.14841      4.25406         0.016053     -0.009320     -0.047602
O	      4.15918      6.06330      4.09752        -0.006666      0.084617      0.059585
O	      4.00238      4.35275      6.36381        -0.005155      0.095684      0.045176
O	      1.89980      6.22374      6.05730         0.212999     -0.019017      0.074305
O	      4.21556      8.40617      6.15047        -0.211249     -0.048498      0.028010
O	      4.04407      6.17605      8.42377         0.050395     -0.055818     -0.210880
O	      6.27499      8.45002      8.17203         0.118508     -0.035563     -0.001845
O	      6.06510      6.25740     10.49002         0.119102     -0.052322      0.070641
O	      8.24642      8.38360     10.29253         0.018284      0.011730      0.024506
