# total energy = -211.69687007 eV
 
CRYSTAL
PRIMVEC
-0.002478 6.371719 6.210702 
6.216013 0.026884 6.180563 
4.141496 4.225500 0.020835 
PRIMCOORD
36 1
Li	      4.21838     10.43744      6.17566        -0.006348      0.018490     -0.078044
Li	      2.20600      8.38905      6.15780        -0.051469     -0.011212     -0.066572
Li	      8.31235     10.55631     10.34978         0.020913     -0.049078      0.015948
Li	      1.94660      2.25008      4.11910        -0.016668      0.049331      0.057540
Li	      4.07662      4.34439      4.15462        -0.020457      0.016769      0.055286
Li	      4.19490      8.38594      4.27777         0.012912     -0.012014     -0.029657
Li	      2.13485      6.34013      4.25971        -0.045186      0.008987      0.027345
Li	      1.94937      4.34630      6.09146         0.031815      0.029442     -0.029338
Li	      8.27754      8.54906      8.34352        -0.009824      0.057636      0.017567
Mn	      2.10142      4.18748      2.14857        -0.021202      0.030944     -0.037475
Mn	      4.15511      2.15252      6.15439         0.002155     -0.013713     -0.041557
Mn	      6.21025      4.25032      6.14655         0.031502     -0.011785     -0.049136
Mn	      6.17765      6.43111      8.29284         0.016674      0.021082      0.093204
Fe	      2.06884      6.39101      8.22197        -0.014827      0.038013      0.302509
Fe	      6.29156      8.46995     10.36236        -0.150335     -0.032845      0.031194
Ni	      4.12726      8.51651      8.21890         0.024433      0.031940      0.167982
Ni	      4.13474      6.33949      2.20876        -0.046556     -0.003052     -0.156958
Ni	      4.07388      6.48540      6.12319         0.075202     -0.089538      0.008628
O	      2.06854      2.20415      2.08075         0.005799      0.035914      0.022408
O	      4.07416      4.23628      2.07596        -0.106414      0.012967      0.041180
O	      4.30700      2.11456      4.24264        -0.202943      0.013877      0.146746
O	      6.24492      4.12532      4.13079        -0.018487      0.183139      0.090796
O	      6.07716      2.08513      6.20470        -0.141668     -0.037429      0.059767
O	      8.16243      4.39283      6.26076         0.028603      0.055956      0.059776
O	      2.06885      4.24238      3.95798        -0.011299     -0.008882     -0.063439
O	      4.13848      6.34092      4.17321        -0.020679      0.021634      0.057921
O	      4.29014      4.09271      6.23671        -0.002478     -0.077325     -0.003749
O	      6.32004      6.42845      6.31576         0.082506      0.036357     -0.062619
O	      6.33805      4.23123      8.18024         0.061544      0.070235     -0.045387
O	      8.26463      6.21984      8.16298        -0.108842     -0.055701     -0.076135
O	      2.06553      6.36558      6.35238        -0.027244     -0.016391     -0.236771
O	      4.13546      8.48020      6.23146         0.007342      0.013580     -0.150032
O	      4.13510      6.42358      8.20860         0.090755     -0.054595      0.066309
O	      6.17426      8.58861      8.35588         0.085713     -0.070485     -0.133464
O	      6.20227      6.50559     10.17629        -0.015645     -0.201426     -0.051590
O	      8.08147      8.48128     10.36461         0.460701     -0.000820     -0.010182
