# total energy = -219.67404359 eV
 
CRYSTAL
PRIMVEC
0.015267 6.327658 6.171246 
6.242109 0.028953 6.156889 
4.171368 4.219025 0.009877 
PRIMCOORD
36 1
Li	      6.24358      6.36266     12.30198        -0.039212      0.030776     -0.051536
Li	      2.12431      8.42037      6.14516         0.008648     -0.025329      0.019277
Li	      6.28149      8.40501     10.29420         0.006515     -0.044385     -0.000069
Li	      4.18125      4.22191      4.12627        -0.017947      0.017157      0.029041
Li	      4.17311      2.14366      6.14227        -0.006852     -0.009163     -0.022991
Li	     10.39440      8.50933     10.30030         0.025197      0.018038      0.042186
Li	      4.17597      6.34234      6.22774         0.052202      0.001368      0.018926
Li	      8.32872      8.47266      8.23924        -0.018983      0.022429      0.011324
Li	      6.26550      6.31064      8.24875        -0.070345      0.011558     -0.000904
Mn	      4.20750      8.43303      8.19940         0.044626     -0.097816     -0.096935
Mn	      6.24448      2.12835      8.18488        -0.153121      0.156663     -0.107912
Mn	      2.06801      2.14246      4.10910         0.016925     -0.009432      0.100473
Mn	      8.29787      6.45932     10.33022        -0.011942     -0.022192      0.164786
Fe	      8.42806     10.42542     10.33924        -0.165138     -0.012718     -0.093550
Fe	      6.13449      4.18359      6.13333         0.066306      0.073473     -0.137386
Fe	      2.16877      4.24946      6.16920         0.017354     -0.146554     -0.033465
Co	      6.26571     10.52527      8.23267        -0.199345     -0.122622     -0.237284
Cu	      8.30138      4.34200      8.15095         0.251339     -0.025434      0.097641
O	      2.02799      1.93225      2.10067        -0.040742      0.372345     -0.080352
O	      4.23863      4.30940      2.05081        -0.447707      0.070572      0.016890
O	      4.02480      2.07753      3.97328         0.013819      0.039485     -0.006619
O	      6.31517      4.15873      4.06896        -0.111945      0.044205      0.874313
O	      6.20748      2.18773      6.29044         0.011118     -0.146270      0.132075
O	      8.22167      4.24462      6.15056         0.086029     -0.008848     -0.113334
O	      2.08563      4.40124      4.10409         0.059800     -0.010879      0.119044
O	      4.30269      6.36549      3.98322         0.008591     -0.001553     -0.011592
O	      4.17679      4.22994      6.14171        -0.089788      0.020286      0.009241
O	      6.25800      6.36026      6.07989         0.005014      0.001718     -0.007307
O	      6.33408      4.09433      8.13592        -0.027813     -0.024532      0.089303
O	      8.51168      6.43377      8.35092        -0.004759     -0.007342     -0.088744
O	      2.12527      6.26514      6.21216        -0.082835      0.211533     -0.739686
O	      4.29157      8.42589      6.32466        -0.070386      0.018181      0.058789
O	      4.02119      6.36162      8.30120         0.759973      0.055951     -0.055017
O	      6.22279      8.59407      8.18930        -0.078937     -0.382767      0.053887
O	      6.15629      6.36385     10.24566         0.188490     -0.000364      0.042978
O	      8.35538      8.40946     10.32843         0.015851     -0.067538      0.004509
