# total energy = -219.60430824 eV
 
CRYSTAL
PRIMVEC
-0.007774 6.195555 6.183718 
6.379547 0.006542 6.169274 
4.272894 4.140598 -0.015507 
PRIMCOORD
36 1
Li	      2.11877      2.05358      0.02732         0.009706      0.016648     -0.063363
Li	      4.19570      2.10700      2.06751        -0.043951      0.046617      0.031258
Li	      0.01688      2.05205      2.04689        -0.023603     -0.020460     -0.052778
Li	      6.30449      6.21626      4.18738         0.015977     -0.023989     -0.020089
Li	      4.29733      4.21127      4.23033        -0.006061     -0.034909     -0.018677
Li	      4.24383      2.06765      6.16374        -0.013522     -0.005583     -0.001833
Li	      6.23113      4.17102      6.08084        -0.076763      0.001573      0.011019
Li	      2.21745      6.15379      4.17405        -0.044343      0.001541     -0.023510
Li	      4.30755      6.17211      6.09058        -0.056669      0.013990      0.038642
Mn	      8.49015      4.19689      4.15406         0.005280      0.048574      0.076412
Mn	      2.19828      4.08868      2.01978         0.025948     -0.038184     -0.064286
Mn	      4.29580      8.20784      4.14468        -0.077407      0.013617     -0.020375
Mn	      4.26710      4.06876      8.18214         0.085857      0.014194      0.106515
Fe	      2.06667      0.20257      2.02455         0.026104     -0.170813      0.171107
Fe	      6.27692      2.09050      4.20737         0.151017     -0.006326     -0.033831
Fe	      6.37739      6.19519      8.07050        -0.002007     -0.001721      0.401532
Co	      0.05137      6.19660      6.17140         0.000608      0.025693      0.040096
Ni	      2.16218      4.11488      6.13342        -0.070679      0.046223     -0.015002
O	      2.16288      2.12040      2.04527        -0.000559      0.104420     -0.005682
O	      4.35290      4.14248      1.90901        -0.024453     -0.033572     -0.004797
O	      4.33943      1.96715      4.13502        -0.077000      0.012750     -0.005324
O	      6.33230      4.06431      4.03223         0.049576      0.096611      0.097928
O	      6.46380      1.95958      6.08700        -0.025097     -0.032338      0.111002
O	      8.73820      4.10964      6.13288         0.003340      0.016208      0.046551
O	      1.93781      4.10325      4.03999         0.048978      0.003146     -0.037735
O	      4.20315      6.37937      4.12096         0.007651      0.051023      0.047960
O	      4.20060      4.12347      6.30479         0.191497      0.034843     -0.142509
O	      6.34999      6.21014      6.21970        -0.056835     -0.158724     -0.279630
O	      6.27438      4.17250      8.31353         0.015111     -0.042887      0.016401
O	      8.39694      6.04555      8.21934         0.057465      0.088402     -0.011542
O	      2.00112      6.15358      6.27171         0.017097      0.139480     -0.260141
O	      4.34632      8.38665      6.02887        -0.107558     -0.022810     -0.032303
O	      4.24452      6.26890      8.34265         0.025186     -0.058446     -0.007156
O	      6.54637      8.21800      8.31756        -0.055977      0.003046     -0.064190
O	      6.43114      6.17206     10.34686         0.008120     -0.100306     -0.086945
O	      8.63074      8.38320     10.17885         0.017963     -0.027533      0.055277
