# total energy = -221.83877043 eV
 
CRYSTAL
PRIMVEC
0.031242 6.240139 6.487593 
6.081842 0.039852 6.478180 
4.065210 4.164594 0.016029 
PRIMCOORD
36 1
Li	     10.02675      4.24590      6.45560         0.040365     -0.005995     -0.006959
Li	      4.04995      2.09236      2.37641        -0.010621      0.004323      0.054590
Li	      4.05857      0.05243      4.34557         0.028783     -0.041360      0.016957
Li	      6.07260      2.06461      4.38105         0.033522     -0.028724      0.076123
Li	      8.17769      4.19929      8.51102         0.032973     -0.006853     -0.024287
Li	      2.11678      2.09299      4.27878        -0.021800      0.016013      0.017482
Li	      4.13264      2.00701      6.41229         0.001804     -0.042929      0.007561
Li	      8.09661      6.32343     10.74832         0.010442     -0.012235     -0.008372
Li	      8.14177      8.35637      8.69440         0.004379     -0.019659     -0.007602
Mn	      6.13502      4.18686      2.25835        -0.096648      0.060899     -0.009033
Mn	      4.03344      4.13897      4.28404        -0.018400      0.027199     -0.023072
Mn	      6.12827      4.14074      6.46815         0.081602     -0.093844      0.017121
Mn	      4.08703      6.30656      6.53535        -0.120345      0.050485     -0.003199
Fe	      6.02631      4.18483     10.69222         0.091006     -0.026081      0.052971
Fe	      2.03503      4.23055      6.47718         0.000118      0.082987      0.038355
Fe	      6.23573      6.35230      8.74329        -0.122224     -0.013740     -0.002593
Co	      8.11565      8.32961     12.96453        -0.036784      0.042681     -0.038990
Co	     10.13941      6.24550      8.60749         0.006001     -0.034301     -0.030532
O	      1.94893      1.98838      1.99241         0.016383     -0.012569     -0.022157
O	      4.17383      4.26572      2.14913         0.015486      0.069565     -0.009135
O	      4.06311      2.26835      4.37761        -0.020249      0.028177     -0.001949
O	      6.02834      4.20979      4.46258         0.016161      0.015011     -0.001189
O	      6.17159      2.04061      6.65083        -0.002138      0.020476      0.012115
O	      8.02791      4.01301      6.49190        -0.088389     -0.019218     -0.038734
O	      2.02370      4.14656      4.50355         0.026936     -0.011039     -0.056312
O	      4.08264      6.21215      4.11914        -0.000297     -0.041997      0.006558
O	      4.11209      4.36192      6.50326         0.047505     -0.043252      0.045798
O	      6.02708      6.37222      6.67135         0.001081     -0.052527      0.007236
O	      6.09641      4.11933      8.63649         0.027542      0.012536     -0.091605
O	      8.15662      6.26329      8.58901         0.107899      0.011531     -0.039616
O	      2.14760      6.26952      6.47044         0.078571      0.021914      0.017086
O	      4.04444      8.25693      6.36340        -0.014503      0.036831     -0.005643
O	      4.04516      6.30135      8.69948        -0.008830      0.003901     -0.043277
O	      6.11675      8.40931      8.53091        -0.006303      0.017849      0.049082
O	      6.10632      6.18599     10.65290         0.007564     -0.005452      0.044745
O	      8.17796      8.32477     11.02537        -0.108591     -0.010604      0.000477
