# total energy = -216.83609354 eV
 
CRYSTAL
PRIMVEC
0.039687 6.369631 6.319448 
6.157846 0.033876 6.325712 
4.114533 4.260096 0.013358 
PRIMCOORD
36 1
Li	      6.10791      0.16315      6.31826         0.017771     -0.039914     -0.015171
Li	      6.11550      4.29486      2.16163        -0.019606      0.031515      0.012886
Li	      6.17085      2.05017      4.35848        -0.063327     -0.088070      0.043520
Li	      6.12254      2.19460      8.35560         0.036288      0.015414     -0.010407
Li	      8.20786      4.33711      8.33720        -0.022024      0.004822     -0.045312
Li	      8.33164      6.34998      6.44121         0.000880     -0.009728      0.011489
Li	      6.22235      4.16922      6.40459        -0.016888     -0.017375     -0.005168
Li	      6.18063      4.32755     10.38904         0.029372      0.035736     -0.073182
Li	      6.25386      6.30473      8.49849         0.009436     -0.006499     -0.003179
Mn	      8.11827      2.16065      6.37059         0.034928     -0.031926      0.015129
Mn	      6.15042      6.37503      4.21081        -0.023764      0.055395      0.040880
Mn	      2.06593      4.28085      6.30439        -0.025665      0.002051      0.030580
Mn	      4.20472      4.22675      8.42359        -0.019024     -0.059105     -0.040260
Fe	      4.12354      2.28051      2.15659         0.043424     -0.152229     -0.002051
Fe	      4.26727      6.34498     10.58122        -0.143678     -0.052388     -0.066610
Fe	      4.15914      6.37928      6.36788         0.004457      0.015146      0.045443
Cu	      4.19252      4.28060      4.19178         0.052460      0.037757      0.023514
Ni	      8.19099      6.44372     10.47169        -0.005524     -0.037721      0.020150
O	      4.11403      4.15934      2.21208        -0.017381      0.209585     -0.080578
O	      2.10120      2.14926      2.24699        -0.035581     -0.017777      0.102189
O	      4.00772      1.97982      4.16742        -0.031191     -0.053702      0.021435
O	      6.13942      4.46629      4.22253         0.125603      0.036849     -0.005597
O	      6.27365      2.13281      6.32218        -0.054335     -0.006112      0.001989
O	      8.21128      4.10721      6.24859         0.011609     -0.011374      0.077052
O	      2.18069      4.19167      4.36130        -0.128159     -0.096233     -0.048624
O	      4.21700      6.48703      4.33242         0.120511      0.072780     -0.031820
O	      4.11206      4.35036      6.41491         0.037214     -0.032744      0.066258
O	      6.15038      6.47109      6.17398         0.052851     -0.058424     -0.075642
O	      6.03671      4.28370      8.41488        -0.042830      0.003348     -0.010036
O	      8.24281      6.57927      8.46633         0.014274      0.053147     -0.113265
O	      2.13552      6.43871      6.21838        -0.034618      0.079702      0.082871
O	      4.05924      8.41489      6.46690        -0.033471      0.062390     -0.010921
O	      4.12739      6.26564      8.40544        -0.006540      0.030833      0.096209
O	      6.19154      8.52048      8.23549         0.098154      0.013873      0.010117
O	      6.15657      6.38537     10.53498         0.037868     -0.033871     -0.033352
O	      8.19641      8.57039     10.38368        -0.003496      0.044850     -0.030536
