# total energy = -215.37808298 eV
 
CRYSTAL
PRIMVEC
-0.026434 6.535302 6.107715 
6.176040 -0.054562 6.135982 
4.106672 4.364337 -0.025874 
PRIMCOORD
36 1
Li	      4.07997      8.69817      8.13494        -0.027060     -0.009700      0.018489
Li	      6.09061      2.28488      8.14053         0.006471      0.083730     -0.035352
Li	      8.09699      4.51688      8.09458         0.046168      0.028767      0.017906
Li	      8.18114      6.51662      6.28457         0.000064      0.037178     -0.046367
Li	      6.22036      4.29913      6.26732        -0.031476     -0.039942      0.057932
Li	      6.12591      4.35467     10.00570         0.021162      0.033884     -0.018495
Li	      4.14143      6.43283      6.18066         0.023150     -0.092707      0.041759
Li	      4.25065      4.22912      8.09133         0.041946     -0.032496     -0.030273
Li	      6.20276      6.28000      8.08252        -0.027857     -0.057256     -0.032456
Mn	      2.10729      2.24679      0.03383         0.018794      0.057331      0.066405
Mn	      4.16141      0.01794      4.08367         0.006065      0.048732      0.034901
Mn	      4.07903      4.31243      4.10157         0.031850     -0.004140      0.003599
Mn	      6.09400      8.63581      6.12570         0.157973     -0.092893      0.006695
Fe	      2.03567      6.50645      8.11101        -0.039009      0.001573      0.019848
Fe	      6.17416      8.59367     10.12840        -0.041173      0.197521     -0.076259
Fe	      6.04254      6.55268      4.04727         0.129668     -0.090713     -0.051469
Cu	      4.09525      4.36423      0.02430        -0.047177      0.021406      0.141343
Cu	      8.24898      6.48301     10.08749         0.025803      0.025864      0.041929
O	      6.17787      4.30204      8.11560         0.041716      0.001538      0.015892
O	      8.23829      6.50240      8.22497         0.004584      0.028814     -0.078149
O	      2.06025      2.00380      2.00277         0.012542      0.063227     -0.090393
O	      4.19203      4.27006      2.22439        -0.166800     -0.026912     -0.141384
O	      4.14963      2.16808      4.11356        -0.040770     -0.054822      0.002980
O	      6.16322      4.38873      4.11969         0.015403     -0.047935      0.016583
O	      6.35578      2.02040      6.03940        -0.051916      0.001842      0.075846
O	      8.32659      4.37315      5.99569        -0.073017      0.009993     -0.040275
O	      2.03730      4.16146      4.17947        -0.134553      0.083416      0.069952
O	      4.11630      6.33802      4.09083        -0.169745      0.001832     -0.004139
O	      3.90560      4.32749      6.03475        -0.085377     -0.024865      0.155713
O	      6.09609      6.73029      6.05362        -0.028482      0.035132      0.073612
O	      1.96459      6.33211      6.06353         0.106356      0.031515     -0.101935
O	      4.07566      8.81984      6.07206         0.003296     -0.040009      0.024184
O	      3.97957      6.52981      8.29736         0.110081      0.041831     -0.039391
O	      6.14350      8.83239      8.07676        -0.007123     -0.061237     -0.070303
O	      6.15935      6.68127     10.04166         0.054488     -0.170573     -0.033825
O	      8.16597      8.86802     10.29826         0.113956      0.011075      0.004897
