# total energy = -216.86202694 eV
 
CRYSTAL
PRIMVEC
0.015914 6.249436 6.386480 
6.312888 0.046009 6.356321 
4.231102 4.170258 0.006898 
PRIMCOORD
36 1
Li	      8.30462      2.22763      6.38625        -0.036955      0.030019      0.012183
Li	      6.22023      4.26640      2.38152        -0.021368      0.026905     -0.031708
Li	      8.18005      4.25520      4.28372         0.055541      0.065092      0.019041
Li	      6.27776      2.31090      4.29260        -0.042026     -0.034220      0.039465
Li	      8.44090      4.14300      8.40762        -0.025289     -0.028940     -0.035038
Li	      6.33061      6.06635      4.23712         0.042159      0.005655     -0.033460
Li	      4.43561      4.17975      4.20183        -0.073891     -0.000265     -0.032755
Li	      6.42708      4.15105      6.13242        -0.025176     -0.028960     -0.002768
Li	      4.22538      6.27070      6.32201         0.053668     -0.015496     -0.016332
Mn	      4.23275      2.10451      6.21819         0.118808     -0.004694     -0.053840
Mn	      2.16925      6.24427      4.30213         0.083236     -0.124040      0.141398
Mn	      2.14578      4.15856      6.35037         0.073122      0.136700     -0.141438
Mn	      6.32342      6.26055      8.52968        -0.022348     -0.131577      0.022549
Fe	     10.48949      4.23857      6.37933         0.097697      0.021256      0.069932
Fe	      4.01119      2.13515      2.26150         0.152393     -0.010143     -0.188687
Fe	      4.22423      4.27811      8.56268        -0.074256     -0.003465     -0.022954
Ni	      4.31426      6.20508      2.16499         0.038806      0.071165     -0.030854
Ni	      4.25736      8.30739      4.30607        -0.029491     -0.020871      0.033871
O	      6.32047      4.17755      4.25561         0.024016      0.005025     -0.018601
O	      2.12630      2.10439      2.04339        -0.083713     -0.017377     -0.039393
O	      4.23358      4.12385      2.00518        -0.006261     -0.013397     -0.023074
O	      4.23945      2.10981      4.11502         0.052803     -0.016716      0.210867
O	      6.19459      2.08328      6.45181        -0.071497      0.015695     -0.044790
O	      8.52135      4.33018      6.31588        -0.133898      0.048446      0.015977
O	      2.12088      4.29074      4.41984         0.045917      0.079902      0.130985
O	      4.09083      6.28114      4.20094        -0.122317     -0.126818      0.094521
O	      4.09673      4.08872      6.48924        -0.045892      0.001358      0.030775
O	      6.48783      6.40623      6.31973        -0.097617      0.063294      0.025985
O	      6.24199      4.28228      8.54159         0.056265      0.044403     -0.034205
O	      8.36122      6.32035      8.67352        -0.068556     -0.019457      0.054758
O	      2.13249      6.13506      6.25577         0.018788     -0.072177     -0.110068
O	      4.42900      8.36345      6.42350         0.024642     -0.033125      0.090669
O	      4.37743      6.25741      8.47560         0.089297     -0.021740     -0.016150
O	      6.37733      8.24720      8.33625         0.037110      0.026612     -0.082309
O	      6.53742      6.25127     10.71858         0.008679      0.133666     -0.036283
O	      8.47831      8.23367     10.58398        -0.092395     -0.051717      0.001730
