# total energy = -223.10403330 eV
 
CRYSTAL
PRIMVEC
0.050061 6.464805 6.177165 
6.233110 0.018888 6.209702 
4.155008 4.330838 0.012498 
PRIMCOORD
36 1
Li	      4.13282      2.16616      2.08638         0.031741      0.051519      0.001153
Li	      8.39474     10.72887     10.31538        -0.027591     -0.076615     -0.009679
Li	      4.23151      6.45914      2.16912        -0.014965     -0.083019      0.015773
Li	      2.04719      4.30589      2.15880         0.015594      0.003030      0.006872
Li	      2.00584      2.27112      4.04286         0.058704      0.069503     -0.013524
Li	      4.16680      8.52782      4.08262         0.010589     -0.008952     -0.051121
Li	      2.19909      6.44797      4.06926        -0.023128     -0.012302     -0.023763
Li	      4.19396      6.51405      6.08755         0.001898     -0.018337     -0.006477
Li	      8.37707      8.65252      8.38037        -0.012099      0.004390     -0.011872
Mn	      4.20921     10.76202      6.20738        -0.035750     -0.083402     -0.008719
Mn	      4.12127      4.40885      4.09850        -0.031047     -0.044733      0.013176
Mn	      8.28559      6.51826      6.23493        -0.060601      0.067947     -0.028827
Mn	      6.19560      6.47184      8.29000        -0.060147     -0.005672      0.052184
Fe	      2.27306      8.61878      6.16522        -0.125397      0.024512      0.006547
Fe	      2.22376      0.16001      2.07115        -0.185204     -0.123782      0.147860
Fe	      6.32599      8.61831     10.25285        -0.167845      0.052764      0.016515
Fe	      6.23962      4.34689      6.27997        -0.107157     -0.031825     -0.084001
Co	      2.09444      4.34518      6.16488        -0.030878      0.021590     -0.102364
O	      2.11428      2.09240      1.99405         0.046640      0.137569      0.017665
O	      4.27839      4.30466      2.16127        -0.028570     -0.004868      0.121866
O	      4.23057      2.32928      4.28133        -0.088353      0.022298     -0.064432
O	      6.14053      4.25266      4.13476         0.080043      0.007293     -0.027717
O	      6.18892      2.26575      6.21221        -0.027662     -0.014876      0.007821
O	      8.23979      4.26152      6.20527         0.095005     -0.070938     -0.018423
O	      2.24348      4.31331      4.18071        -0.047760      0.020265      0.058276
O	      4.17876      6.26922      4.09559         0.007887      0.016549     -0.018907
O	      4.18547      4.34424      6.09456        -0.008660      0.082922     -0.046597
O	      6.27952      6.37253      6.28180         0.009536      0.029881     -0.028859
O	      6.20953      4.51757      8.23923        -0.006194      0.010747      0.092446
O	      8.14774      6.50550      8.13343         0.093369     -0.029868      0.139869
O	      2.13186      6.56965      6.28902         0.084249      0.016673     -0.127519
O	      4.21798      8.63673      6.10384         0.176489      0.028183      0.019417
O	      4.21463      6.48018      8.29667         0.214663     -0.000942      0.056681
O	      6.24770      8.50507      8.23313         0.035691     -0.062505      0.013262
O	      6.24879      6.59540     10.24274        -0.024344     -0.001517     -0.055560
O	      8.25495      8.62660     10.41853         0.151254      0.006517     -0.059021
