# total energy = -220.94391190 eV
 
CRYSTAL
PRIMVEC
0.008278 6.333215 6.308559 
6.222696 0.023937 6.292709 
4.155922 4.218978 0.008643 
PRIMCOORD
36 1
Li	     10.37023      4.26887      6.32033         0.004365      0.032044      0.014853
Li	      6.19723      4.22418      2.15349        -0.016222     -0.011108      0.030671
Li	      4.14798      6.30370      2.13949        -0.008640     -0.028538     -0.029234
Li	      4.15644      4.30971      4.15876        -0.024039      0.006282     -0.023887
Li	      4.14095      2.17485      6.28723         0.020564      0.059612     -0.015609
Li	      6.21137      4.26991      6.30920        -0.013773     -0.001779      0.000295
Li	      0.05726      4.15290      4.17771         0.022759     -0.031519     -0.020536
Li	      4.19048      6.30468      6.22590         0.016457     -0.056992     -0.041028
Li	      6.23146      6.30525      8.40155         0.034557     -0.013503      0.049377
Mn	      4.19528      6.35436     10.52823         0.068389      0.009087      0.104322
Mn	      8.25050      4.29444      8.35718        -0.029711      0.037053     -0.001111
Mn	      2.13642      6.31673      4.22259        -0.100653     -0.086628     -0.163469
Mn	      4.27179      4.24690      8.36857        -0.069306     -0.053654     -0.204314
Fe	      2.06218      2.05391      0.07758        -0.041731     -0.020717     -0.008159
Fe	      4.16912      2.17936      2.08051        -0.070419     -0.043662      0.175044
Fe	      6.17004      2.16718      4.28151         0.084063     -0.040944     -0.072139
Fe	      6.23665      8.35633      6.31959         0.008415      0.201482     -0.109338
Cu	      6.13268      6.27842      4.22120        -0.080097     -0.066369     -0.061540
O	      6.23807      6.44280      6.14003        -0.014367     -0.097128      0.086210
O	      2.09670      2.11752      2.11820         0.011693      0.030602     -0.018603
O	      3.99461      4.13755      2.11254        -0.033232      0.076621     -0.046703
O	      4.20946      2.13054      4.14994        -0.080259     -0.004470     -0.025857
O	      6.34095      4.15225      4.20016         0.062013      0.079207      0.022041
O	      6.32997      2.12007      6.21755        -0.043849      0.014700      0.097581
O	      8.33540      4.10317      6.20099        -0.012455      0.035734     -0.047173
O	      2.04681      4.37558      4.26967        -0.007359     -0.017975     -0.045645
O	      4.03752      6.31479      4.19647         0.242413      0.028425     -0.006217
O	      4.07862      4.23784      6.48256         0.064739      0.028320      0.205805
O	      6.32987      4.28405      8.37457         0.101531     -0.013545     -0.010329
O	      8.31171      6.39039      8.53293         0.019663      0.057105      0.108446
O	      2.08124      6.36516      6.15206         0.007126     -0.099554      0.012264
O	      4.13604      8.39690      6.42183         0.016055     -0.033135     -0.091832
O	      4.17737      6.30609      8.57010         0.017111     -0.021385      0.064132
O	      6.17010      8.49784      8.37208         0.069990     -0.031116      0.072451
O	      6.24734      6.48134     10.49524        -0.195201      0.009888      0.010590
O	      8.31299      8.37389     10.43532        -0.030591      0.067559     -0.011361
