# total energy = -221.19199737 eV
 
CRYSTAL
PRIMVEC
-0.001606 6.288735 6.374438 
6.229620 0.000877 6.371678 
4.158786 4.196533 -0.005251 
PRIMCOORD
36 1
Li	      8.29731      2.16034      6.36749        -0.021205      0.009506      0.009092
Li	      8.20251      4.21155      8.54037        -0.019407     -0.014062     -0.000599
Li	      2.18543      2.13962      4.35729        -0.053522     -0.003544      0.057901
Li	      4.05003      4.19351      4.37182         0.050516     -0.003971      0.054106
Li	      8.20064      6.22913      6.27558        -0.003111     -0.019668      0.010446
Li	      6.27310      4.26470      6.37171         0.040356      0.007719      0.008241
Li	      0.05876      4.16073      4.17309        -0.020685     -0.006113     -0.014288
Li	      2.12440      4.13374      6.28531        -0.003047     -0.012335      0.021144
Li	      6.32055      6.22494      8.40160         0.029328     -0.044304     -0.040295
Mn	     10.32506     10.44423     12.68722        -0.000241     -0.041566      0.026800
Mn	      0.00943      2.08799      2.12490        -0.010190      0.117696      0.005845
Mn	      2.06771      6.18956      4.27097         0.031911      0.059570     -0.124589
Mn	      4.16776      4.16137      8.44178         0.040090     -0.051586     -0.014528
Fe	      6.23689      4.24453      2.20548        -0.004849      0.045738     -0.072227
Fe	      4.12202      2.16855      2.14272        -0.052351     -0.007991     -0.050970
Fe	      6.20680      2.14090      4.31473         0.090375      0.007864     -0.023878
Fe	      4.33210      6.30082      6.33483        -0.193964      0.069233      0.025695
Ni	      4.19503      6.28334     10.64224         0.011312     -0.071488     -0.140438
O	      2.03025      2.05319      2.18256        -0.016831      0.031422     -0.013551
O	      4.23616      4.24421      2.15471        -0.022191      0.044374     -0.002777
O	      4.21852      2.08248      4.11911        -0.080253      0.091117      0.063949
O	      6.31064      4.13391      4.18665        -0.121900      0.025051      0.045848
O	      6.20215      1.95950      6.26784        -0.007411     -0.005772      0.069840
O	      8.43368      4.15713      6.26463         0.020770     -0.020577      0.154538
O	      2.03875      4.35905      4.27324         0.027584      0.006739      0.019811
O	      3.98114      6.29013      4.39566        -0.050735     -0.008576     -0.101840
O	      4.13953      4.30955      6.54962        -0.002185     -0.056711     -0.082556
O	      6.18869      6.30783      6.37380         0.247324      0.037971     -0.013441
O	      6.14214      4.00483      8.47001         0.014370     -0.059001      0.002130
O	      8.42982      6.21474      8.67711        -0.033548     -0.048094      0.108959
O	      1.96183      6.31022      6.26922         0.030493     -0.000160     -0.025155
O	      4.12131      8.41812      6.54414        -0.001456      0.049700     -0.060607
O	      4.09057      6.40971      8.45167        -0.002070      0.023737      0.005202
O	      6.24594      8.51513      8.54701        -0.023156     -0.026878     -0.003671
O	      6.32157      6.34389     10.49489         0.074633     -0.049774      0.076379
O	      8.25762      8.31391     10.43799         0.035249     -0.075268      0.019484
