# total energy = -224.51609603 eV
 
CRYSTAL
PRIMVEC
0.013972 6.551542 6.113971 
6.304250 0.016851 6.112040 
4.218113 4.381813 -0.004600 
PRIMCOORD
36 1
Li	      6.26287      0.13897      6.18000         0.062660      0.033117      0.034716
Li	      8.23985      2.24498      6.17184        -0.053353     -0.014563     -0.020434
Li	      2.06838      0.03508      2.00471        -0.026705      0.019689     -0.030341
Li	      6.39361      8.71736     10.22376         0.059576     -0.035915     -0.032635
Li	      6.39066      2.28384      8.06669         0.018556      0.048690      0.028532
Li	      8.36214      4.34179      8.04014         0.029339     -0.019299      0.003742
Li	      6.40352      4.28763      6.26092         0.038691      0.046195      0.003176
Li	      8.45978      8.71800      8.13686        -0.027833     -0.039126      0.019668
Li	      6.34082      6.51385      8.12535         0.010507     -0.029030     -0.040075
Mn	      6.30713      6.54118      4.03976        -0.037581     -0.003938     -0.046407
Mn	      8.37080      6.63831     10.11922        -0.042782      0.077265     -0.076461
Mn	      6.31236      8.73583      6.16751         0.036872     -0.001144     -0.007997
Mn	      4.19077      6.54104      6.17138        -0.021580     -0.050702      0.003164
Fe	      4.21011      2.25352      1.98821        -0.000620      0.015512      0.005593
Fe	      8.42999     10.89575     10.19673        -0.044233      0.095516     -0.051047
Fe	      4.32649      4.29918      4.01541        -0.081637      0.090624      0.115142
Fe	      8.63606      6.51719      6.26157        -0.159850     -0.001049     -0.094124
Fe	      6.26350      4.49156     10.05114         0.018076     -0.057409      0.218155
O	      2.20094      2.21226      2.13784        -0.076984     -0.028782     -0.010014
O	      4.20494      4.26392      2.13457        -0.003309      0.039987     -0.182834
O	      4.27593      2.21109      4.07693        -0.014142     -0.055557      0.045309
O	      6.31815      4.55924      4.05881         0.011848     -0.049446     -0.016525
O	      6.26321      2.20498      6.13035         0.230992      0.064781     -0.030813
O	      8.41584      4.56316      6.00421         0.019600     -0.062284      0.160728
O	      2.09086      4.21256      4.18178        -0.012428     -0.015983     -0.030034
O	      4.09576      6.47296      4.14453        -0.033546     -0.013463      0.042739
O	      4.07333      4.21988      6.05138         0.042950      0.073704      0.041915
O	      6.15871      6.51535      6.00230        -0.047866     -0.035583      0.071523
O	      6.32335      4.34187      8.23302         0.016961      0.023204     -0.182670
O	      8.40044      6.58049      8.18751        -0.052791     -0.010866      0.211505
O	      2.24433      6.57674      5.98217         0.000474      0.026140      0.041211
O	      4.33417      8.76451      6.08916        -0.029518     -0.070728     -0.128040
O	      4.21403      6.69246      8.14639        -0.006595     -0.003058     -0.110986
O	      6.24017      8.78851      8.04669         0.112017     -0.004086      0.043571
O	      6.36027      6.49092     10.18203         0.087319      0.104897     -0.013545
O	      8.47855      8.92764     10.19436        -0.023086     -0.157310      0.014596
