# total energy = -209.64305858 eV
 
CRYSTAL
PRIMVEC
0.043865 6.219785 6.157697 
6.324653 0.017366 6.184330 
4.219317 4.166804 0.008833 
PRIMCOORD
36 1
Li	      0.13321      6.20343      6.13140         0.091922     -0.012324     -0.092879
Li	      2.15786      8.17088      6.15149         0.002271     -0.036613     -0.015203
Li	      2.09166      6.31068      8.05242        -0.037105      0.046115     -0.032236
Li	      4.28043      6.15271      2.09403         0.041912     -0.073961     -0.067865
Li	      8.45068      6.23954      6.19626         0.000434      0.028681      0.062318
Li	      4.29289      8.19280      4.27210        -0.016102     -0.000573      0.025379
Li	      2.20890      6.20334      4.28084        -0.019686      0.036664     -0.041707
Li	      2.10360      4.29375      6.07416         0.003116      0.021002      0.037481
Li	      4.16316      6.25598      6.08961        -0.078386     -0.020210      0.062915
Mn	      4.23963      8.33632      8.09224         0.062176     -0.157221     -0.156540
Mn	      6.31641      2.11413      4.17675         0.162968     -0.148240      0.107223
Mn	      8.47693      4.17906      8.21468        -0.108510      0.088310     -0.194781
Mn	      4.24846      4.14753      8.19048        -0.018137      0.005831      0.059427
Mn	      6.35983      6.24968      8.18530        -0.002544      0.066366      0.056546
Cu	      4.20018      4.24675      4.19102        -0.024886     -0.105214      0.018154
Ni	      8.44055      4.18992      4.22894         0.032226     -0.044989      0.052399
Ni	      6.28965      6.27126      4.18911         0.109394     -0.040680      0.038977
Ni	      6.34125      4.14474      6.19787        -0.034029     -0.039455      0.102691
O	      4.31560      6.16242      4.06974        -0.103444      0.083015     -0.024535
O	      2.14750      6.21047      6.19030        -0.004996     -0.019096     -0.045088
O	      2.28143      2.12897      2.11850        -0.010071     -0.086476     -0.051519
O	      4.15055      4.03122      1.95693         0.203278      0.064655      0.173179
O	      4.31580      2.14087      4.01980        -0.002089      0.055638     -0.022764
O	      6.33250      4.08636      4.12167        -0.089935     -0.021732     -0.130850
O	      6.32207      2.10798      6.01718        -0.066861     -0.105415     -0.053370
O	      8.36686      4.16295      6.28298         0.114774      0.036343      0.106775
O	      2.19377      4.12264      3.97095         0.033098      0.073820      0.064070
O	      4.30623      4.13530      6.33023        -0.118652      0.035607     -0.433920
O	      6.35504      6.20226      6.28472         0.017094      0.150497      0.030748
O	      6.35877      4.31660      8.29107         0.021581      0.017167      0.178307
O	      8.29349      6.23362      8.25162        -0.030066      0.015172      0.021063
O	      4.25687      8.28676      6.28432         0.027015     -0.006876      0.038870
O	      4.40483      6.31165      8.27930        -0.009628      0.092298     -0.072859
O	      6.29757      8.21650      8.28736        -0.107319      0.004849      0.025462
O	      6.30217      6.39824     10.17504         0.068345      0.070514      0.013917
O	      8.28893      8.38235     10.16849        -0.109159     -0.073467      0.160213
