# total energy = -101.71445585 eV
 
CRYSTAL
PRIMVEC
-0.000129 2.148629 2.145626 
5.830675 4.794641 -6.933445 
-3.942956 2.368973 -2.364511 
PRIMCOORD
16 1
Li	     -0.00176      0.14352     -0.13735         0.017998      0.022915     -0.025158
Li	     -1.58822      4.72665     -2.57038         0.012962     -0.007437      0.006355
Li	      0.19231      4.15430     -4.14720         0.009124     -0.004536      0.001509
Li	      2.19550      4.02695     -1.87796         0.035048      0.006128     -0.003794
Ti	     -1.96207      2.35673     -0.21169         0.475837      0.197559     -0.199937
Ti	      3.51251      4.86764     -4.88876        -0.389438     -0.169199      0.157851
Ni	      1.57964      7.20289     -5.04933        -0.068986     -0.047309      0.051984
Ni	      0.35228      2.33513     -2.33029        -0.127664     -0.092290      0.091676
O	      3.50552      5.12482     -2.98366        -0.087883      0.213630     -0.194769
O	      0.26065      4.31045     -2.15845         0.000577      0.125328     -0.130130
O	      1.71672      5.16224     -5.15339         0.354010     -0.123053      0.115959
O	     -0.17171      2.19278     -0.04079        -0.500930      0.000067     -0.000295
O	     -1.66649      4.48364     -4.47595         0.169590     -0.010031      0.009458
O	      1.65879      7.14643     -7.13897         0.018315      0.101849     -0.099379
O	     -2.06188      2.09695     -2.09567        -0.010139     -0.213405      0.223775
O	      3.69789      7.09794     -4.92617         0.091578     -0.000215     -0.005107
