# total energy = -209.96620101 eV
 
CRYSTAL
PRIMVEC
0.029714 6.266652 6.154494 
6.243474 0.024488 6.159380 
4.173698 4.192223 0.005194 
PRIMCOORD
36 1
Li	      4.16579      4.18349      0.16914        -0.003765     -0.010181     -0.041486
Li	      4.12025      2.19150      2.07728        -0.020823      0.018631      0.028731
Li	      4.13821      6.21127      2.10379         0.044026      0.009005     -0.034190
Li	      2.17381      4.25577      2.05885        -0.010591     -0.003779      0.004281
Li	      2.04242      2.12184      4.06374        -0.023523      0.027923     -0.038069
Li	      4.13835      4.28012      4.01831        -0.010532      0.063076      0.069729
Li	      4.20801      6.26047      6.15057         0.007117      0.003248     -0.007877
Li	      4.24260      4.15519      8.12818        -0.000129     -0.020449      0.000580
Li	      6.31312      6.20466      8.19115         0.010570      0.011754      0.003844
Mn	      2.16325      8.34989      6.21577         0.001048     -0.046686      0.176990
Mn	      4.19839      6.31854     10.22208        -0.017678      0.029082      0.013673
Mn	      6.25233      8.37229     10.20204         0.037745     -0.008092      0.001865
Mn	      6.29349      4.15527     10.15833         0.071815     -0.071551      0.020704
Mn	      6.29887      8.35113      6.21193        -0.051539     -0.039265     -0.015913
Cu	      6.19737      4.22769      2.05162         0.061016      0.049004      0.043347
Cu	      8.31956      6.29376      6.26960         0.100795      0.016508     -0.089178
Ni	      6.20557      4.25204      6.24343        -0.019057      0.045483      0.009283
Ni	      8.39066      6.25585     10.16879        -0.108396      0.009852      0.043171
O	      8.35593      6.30684      8.19393        -0.002488     -0.002649      0.041056
O	      4.11013      6.28593      8.38533         0.004012      0.015029     -0.023985
O	      2.09871      2.01049      1.90492         0.040178      0.069783     -0.011695
O	      4.25290      4.18129      2.10743        -0.070258      0.000402     -0.002709
O	      4.19974      1.92358      4.20705        -0.033534     -0.064377     -0.128467
O	      6.40027      4.18358      4.12752         0.089869      0.023023      0.075797
O	      6.33556      2.16153      6.00531         0.025215     -0.131850      0.019929
O	      8.27579      4.19242      6.07325         0.106022      0.095680     -0.029042
O	      1.94887      4.21822      4.13541        -0.079399     -0.109466     -0.088981
O	      4.14257      6.44954      4.09637         0.103127      0.069732      0.000993
O	      4.15795      4.14646      6.10078         0.000046      0.054387      0.001748
O	      6.31815      6.38800      6.19791        -0.147458      0.061178     -0.022306
O	      6.26128      4.20677      8.29342         0.010011      0.004816      0.128221
O	      2.11403      6.16066      6.14200         0.024124     -0.107686     -0.062043
O	      4.17877      8.36074      6.02283        -0.054798     -0.024372     -0.043788
O	      6.26820      8.47187      8.28818        -0.013043     -0.099215      0.060618
O	      6.17086      6.23789     10.23884        -0.087324     -0.032485     -0.030733
O	      8.43558      8.44562     10.36137         0.017598      0.094508     -0.074101
