# total energy = -211.17037773 eV
 
CRYSTAL
PRIMVEC
0.002231 6.189772 6.529900 
6.072540 0.025235 6.506942 
4.049359 4.112038 0.014895 
PRIMCOORD
36 1
Li	      3.97579      4.10161      0.13831         0.002435     -0.023774      0.108599
Li	      3.98562      2.11632      2.16673        -0.102426      0.101699     -0.003960
Li	      4.05348      0.04768      4.36211        -0.000505      0.010395      0.059722
Li	      4.06182      6.12206      2.19633         0.020328     -0.033696     -0.024560
Li	      8.12421      4.13831      8.63420         0.079812     -0.108579     -0.063374
Li	      2.02202      2.08179      4.25682         0.049232      0.016224     -0.083125
Li	      8.13808      6.17345      6.55378        -0.006401     -0.010354     -0.015867
Li	      4.03716      8.18272      4.39161        -0.018543      0.002745      0.071282
Li	      4.05731      6.21340      6.47702        -0.003094      0.035364     -0.074110
Mn	      2.04576      2.05851      0.05381         0.050015     -0.119840      0.138816
Mn	      6.05248      2.06102      4.42061        -0.011219     -0.002489      0.049907
Mn	      4.07218      4.14911      4.32409        -0.153098     -0.111883     -0.057854
Mn	      6.02713      8.26365      6.53667        -0.063128      0.113923     -0.106527
Mn	      6.05122      6.19716      8.68819         0.000794      0.262260     -0.082731
Cu	      2.03601      0.06251      2.15900        -0.135632      0.150476     -0.042123
Cu	      6.07765      4.12781      6.54110         0.072049      0.093264     -0.043272
Cu	      4.08610      4.14256      8.67104         0.175354     -0.125393      0.030490
Cu	      2.05537      6.15694      4.34015        -0.037567     -0.018148      0.105126
O	      6.03730      4.31361      8.71071        -0.179656     -0.129012     -0.061892
O	      7.97930      6.28041      8.68385         0.032389      0.203307     -0.110887
O	      4.08435      6.11120      8.74911         0.064437     -0.290123     -0.026600
O	      2.03723      2.00486      1.97648         0.035462      0.278471      0.042809
O	      4.12585      4.11526      2.38384        -0.286465     -0.067796      0.075431
O	      4.14817      2.17230      4.34800         0.008053      0.045892     -0.008720
O	      6.02127      4.08447      4.30367        -0.016601      0.067620      0.062051
O	      6.13997      2.02331      6.49258         0.019969     -0.050791      0.159844
O	      8.02508      3.97834      6.54263         0.063398      0.068077     -0.017590
O	      2.13534      4.13325      4.46283         0.105177     -0.062670     -0.073370
O	      4.01734      6.06593      4.31636         0.098348      0.004492     -0.020432
O	      4.13521      4.15177      6.27197        -0.077399      0.008147     -0.042983
O	      6.06948      6.32335      6.74091        -0.005379     -0.255571      0.002731
O	      2.00618      6.17761      6.58748         0.034603      0.164768      0.078070
O	      3.95888      8.28015      6.48785        -0.060326     -0.043114      0.024531
O	      6.11240      8.21972      8.61126         0.309241     -0.164983      0.013402
O	      6.10922      6.29735     10.64404        -0.044973     -0.091346     -0.068381
O	      8.00532      8.19356     11.11000        -0.018687      0.082440      0.005550
