# total energy = -217.15723239 eV
 
CRYSTAL
PRIMVEC
-0.002994 6.133868 6.178441 
6.360612 0.009703 6.165167 
4.248911 4.088368 -0.001425 
PRIMCOORD
36 1
Li	      0.01311      0.01670      0.01957        -0.007854     -0.014705     -0.018795
Li	      4.16512      2.11579      2.03257        -0.006202      0.006344     -0.047322
Li	      6.37690      2.05796      8.10221         0.034071      0.025338     -0.032781
Li	      6.27411      6.18494      4.21674        -0.061782     -0.104018     -0.000583
Li	      4.30932      2.09608      6.19668         0.051281      0.003000      0.022047
Li	      6.34535      4.09445      6.19606        -0.011952      0.031721      0.008018
Li	      0.07236      4.03203      4.11077        -0.038858      0.013912      0.002313
Li	      2.16528      6.01554      4.12018        -0.024260      0.027584     -0.000149
Li	      2.07060      4.07986      6.05795        -0.022308      0.011281      0.056690
Cr	      6.40880      2.07673      4.17896        -0.042781     -0.036967     -0.024613
Cr	      4.29127      4.04614      8.22290         0.009816     -0.055434      0.031974
Cr	      6.34806      6.14243      8.17764        -0.042906     -0.053277     -0.060233
Fe	      6.23186      4.15313      2.04073         0.228899      0.019974     -0.027637
Fe	      8.52383      4.18704      4.25872         0.016313     -0.017519     -0.070664
Co	      2.15879      8.14403      6.16424         0.066027      0.054235      0.006636
Co	      2.11452      4.06144      2.04806        -0.159551      0.047309     -0.211658
Co	      4.23688      6.15914      6.13694         0.152472     -0.075077      0.111760
Cu	      4.14253      4.05416      4.18446         0.057982     -0.019012      0.006307
O	      2.06233      4.03657      3.87689         0.101051     -0.000385      0.335022
O	      2.13836      2.04656      1.91667         0.023104      0.048999     -0.098524
O	      4.34115      4.08981      2.09450        -0.187984     -0.005063     -0.007519
O	      4.38081      2.06599      4.19732        -0.000183      0.085101     -0.007311
O	      6.56160      4.09653      4.03222        -0.089995      0.103370      0.083440
O	      6.56890      2.04842      6.10879         0.022691      0.004547      0.043884
O	      8.54245      3.98582      6.22498         0.031421     -0.020878      0.032533
O	      4.19572      6.00014      4.31526        -0.020120      0.078064     -0.060918
O	      4.23022      4.21750      6.25546        -0.101699      0.054312     -0.084521
O	      6.15298      6.18270      6.21280        -0.184935      0.039340      0.002979
O	      6.27575      4.16381      8.22509         0.022931     -0.094509      0.044908
O	      8.34730      6.12867      8.16142         0.002429      0.040398      0.016135
O	      2.24223      6.21012      6.22766         0.110024     -0.107218     -0.108484
O	      4.10358      8.00058      6.16038        -0.053692      0.044600     -0.009773
O	      4.27021      6.08598      8.18059         0.021027      0.053999      0.076593
O	      6.48185      8.20726      8.28876         0.026081     -0.039884      0.060636
O	      6.24883      6.22111     10.21856         0.115656     -0.068539      0.018768
O	      8.43597      8.25007     10.31149        -0.036217     -0.080941     -0.089159
