# total energy = -217.81968292 eV
 
CRYSTAL
PRIMVEC
0.015028 6.133464 6.303802 
6.132115 0.027669 6.292517 
4.121098 4.114160 -0.015192 
PRIMCOORD
36 1
Li	      4.08560      4.13422      0.09356         0.020143     -0.015691      0.113647
Li	      2.02723      0.06326      2.13009        -0.002339      0.028809     -0.014121
Li	      0.05816      2.08643      2.14641        -0.006914      0.029697      0.053055
Li	      2.08910      4.04419      2.08780        -0.026961      0.054475      0.018239
Li	      1.96803      2.08179      4.09850         0.005995      0.022967     -0.096025
Li	      6.15309      4.11867      6.27940        -0.040921      0.004902      0.011532
Li	      0.05732      3.98667      4.12338         0.008571     -0.019187     -0.053619
Li	      4.12758      6.16497      6.29145        -0.024020      0.036289     -0.016334
Li	      4.12219      4.15534      8.36096         0.002995     -0.030013     -0.017431
Cr	      2.06162      2.07744      0.06394         0.047978     -0.012172     -0.092221
Cr	      8.21310      6.18883     10.48930         0.052884     -0.035369     -0.020592
Cr	      6.16100      6.05223      8.39353         0.104843     -0.314334      0.207565
Fe	      4.18125      4.15249      4.10643        -0.193594      0.001188      0.021727
Fe	      6.13292      8.25011      6.29398         0.009616     -0.005552      0.046473
Co	      4.09721      2.08403      2.08669        -0.086642      0.045500      0.006493
Co	      6.16358      8.21548     10.47367        -0.057044      0.069678      0.011979
Co	      8.25048      6.11554      6.33570        -0.025273      0.096358     -0.022024
Ni	      8.18256      4.13064      4.17062         0.064376     -0.009015      0.042368
O	      2.15533      2.05641      2.01588         0.021309     -0.001596      0.008431
O	      4.09346      4.01173      2.16827         0.011739     -0.046776     -0.197274
O	      4.21252      2.06721      4.05588         0.056369      0.098299     -0.033438
O	      6.14964      4.01231      4.17264        -0.021402     -0.153112      0.026740
O	      6.10679      2.05303      6.11287        -0.240926      0.009205     -0.005605
O	      8.20737      4.18682      6.21311         0.012670      0.178080      0.194341
O	      2.05961      4.15499      4.31819         0.109804     -0.038924     -0.068046
O	      4.07065      6.10663      4.16472         0.036303      0.014381      0.122862
O	      4.03028      3.91690      6.22705         0.106256     -0.194136      0.135648
O	      6.26796      6.20572      6.41054         0.280894     -0.061831     -0.092127
O	      6.09952      4.25160      8.40221         0.058861      0.216441     -0.007786
O	      8.06288      6.22690      8.46840        -0.057274     -0.036169     -0.070127
O	      2.08863      6.15495      6.22581        -0.048455      0.119920     -0.004626
O	      4.11933      8.21280      6.44510        -0.151914     -0.009638      0.034090
O	      4.23546      6.25476      8.42167         0.033128      0.008513     -0.196608
O	      6.08634      8.14694      8.43079        -0.030264     -0.033732      0.012539
O	      6.18530      6.25402     10.38847         0.005867      0.042640      0.013573
O	      8.11039      8.19990     10.60824        -0.036658     -0.060096     -0.073296
