# total energy = -219.87747297 eV
 
CRYSTAL
PRIMVEC
0.025433 6.219065 6.191441 
6.211302 0.029833 6.187071 
4.164018 4.166040 -0.003082 
PRIMCOORD
36 1
Li	      4.13729      4.14203      0.02565        -0.041677     -0.028377      0.013105
Li	      8.26335      2.25482      6.27570         0.019820      0.060032     -0.031764
Li	      4.14474      8.31632      8.14163        -0.033890      0.091449     -0.091052
Li	      4.18044      6.25016     10.29454         0.058218     -0.065724      0.049332
Li	      6.24845      2.10570      8.19759         0.016946      0.005309      0.052762
Li	      2.13758      4.06420      1.97295         0.089985     -0.060573     -0.028170
Li	      6.27787      4.13764      6.26448        -0.055424      0.117957      0.131643
Li	      4.19352      6.31572      6.25729         0.035013     -0.048650     -0.019213
Li	      6.17226      6.23651      8.22782        -0.010996     -0.060657     -0.035244
Cr	      2.07595      2.06142      4.09937         0.026664     -0.031884      0.082513
Cr	      8.37619      6.15867      6.23828        -0.332218     -0.167247     -0.138299
Cr	      2.11845      6.21091      4.12527        -0.045453      0.124932      0.053324
Fe	      2.09088      6.28263      8.14879        -0.070904     -0.004454     -0.032799
Fe	     10.30838      8.42025     10.34042        -0.125292      0.033529      0.029466
Co	      6.22195      8.30046     10.30882         0.179602     -0.039306      0.131122
Co	      4.17963      4.15904      4.12132        -0.053671      0.007703     -0.143758
Co	      2.09404      4.14966      6.18695        -0.099695     -0.138057     -0.106562
Co	      4.19537      4.19204      8.22485         0.075260      0.126715      0.084044
O	      2.09674      2.02469      2.10691         0.050271      0.050720      0.049558
O	      4.25755      4.12926      2.22820        -0.125799     -0.010066     -0.075753
O	      4.11275      2.16412      4.19671        -0.119855      0.042718      0.092790
O	      6.11508      4.21798      4.10901        -0.113880     -0.011255     -0.060657
O	      6.02945      2.15223      6.18764         0.209441     -0.026371     -0.187088
O	      8.25821      4.33568      6.20428         0.000622      0.349875      0.020969
O	      2.13391      4.14011      4.19035         0.066203     -0.015793     -0.025901
O	      4.18677      6.17311      4.16603         0.001447     -0.050586     -0.033826
O	      4.02869      4.04785      6.06994         0.057804     -0.057005      0.021424
O	      6.36058      6.37196      6.11395         0.054199     -0.006366     -0.022526
O	      6.09135      4.20001      8.35938         0.009686     -0.085597      0.011529
O	      8.32570      6.38607      8.24678        -0.002477      0.163607      0.021885
O	      2.08820      6.09267      6.14238         0.027651     -0.005202     -0.042448
O	      4.31559      8.30766      6.10988         0.153316     -0.021074     -0.033523
O	      4.10474      6.10513      8.25457        -0.051103     -0.140971      0.126335
O	      6.41063      8.37428      8.12443        -0.016684     -0.142602      0.010291
O	      6.33957      6.23023     10.30043        -0.006244     -0.015153     -0.006144
O	      8.32111      8.22766     10.39122         0.173115      0.058423      0.132633
