# total energy = -216.00148974 eV
 
CRYSTAL
PRIMVEC
0.011926 6.245687 6.256694 
6.135397 0.020535 6.247834 
4.111543 4.178787 -0.007236 
PRIMCOORD
36 1
Li	      2.10441      8.33605      6.28425         0.015231     -0.034012      0.028232
Li	      4.06331      8.32490      8.27783        -0.061080     -0.011535     -0.010514
Li	      4.13708      6.24308     10.40628         0.011208      0.024247     -0.047334
Li	      2.08216      4.15655      2.06356         0.063779     -0.030974      0.046798
Li	      8.17523      6.27862      6.28115         0.005486      0.028792     -0.028501
Li	      6.15653      4.24796      6.27205        -0.012102      0.017884     -0.010551
Li	      8.18149      6.29407     10.41863         0.009764     -0.005508     -0.014984
Li	      6.13550      8.33030      6.26094        -0.032322     -0.021806     -0.014069
Li	      4.15727      6.24798      6.29605         0.045200      0.008362     -0.029314
Cr	      2.07211      6.23984      8.31454        -0.073179      0.058724     -0.007489
Cr	      6.19175      8.31706     10.45460        -0.093778      0.014639      0.044515
Cr	     10.22953      8.39927     10.43979         0.141365     -0.040491     -0.045891
Fe	      6.09275      2.11391      8.25436         0.082966     -0.092484      0.047760
Fe	      6.22712      6.25829      4.28367         0.033540     -0.053918     -0.112382
Fe	      4.03097      4.19858      4.33288        -0.022376      0.083603     -0.369752
Co	     10.18448      4.16311      6.23727         0.155383     -0.053533      0.061625
Cu	      4.10334      4.18852      8.26848        -0.085494      0.014132     -0.152051
Ni	      6.16058      6.27123      8.21796        -0.008195     -0.010418     -0.057235
O	      4.06269      6.17751      8.27612        -0.054463      0.187007      0.038083
O	      1.99328      1.98536      2.18600         0.055855      0.053517     -0.056750
O	      4.15025      4.26228      2.16415        -0.047257     -0.084139     -0.051483
O	      4.13772      2.18845      4.14924         0.084644     -0.159279      0.010026
O	      6.11830      4.13322      4.11828         0.091704     -0.022256      0.034397
O	      6.17041      2.01201      6.22371         0.028939     -0.025688     -0.068191
O	      8.44586      4.18319      6.26911         0.051204      0.001988     -0.015179
O	      2.03883      4.10003      4.14463        -0.126553      0.114919     -0.001030
O	      4.14153      6.30136      4.13224        -0.065472      0.042759      0.017831
O	      4.08420      4.21431      6.18192         0.003190     -0.000292      0.473905
O	      6.17920      6.22208      6.17886         0.005745      0.021819      0.100482
O	      6.11601      4.15552      8.38519         0.109922      0.029543      0.011087
O	      8.24292      6.37651      8.29342        -0.002130     -0.140310      0.018308
O	      1.81835      6.23376      6.35091        -0.147955     -0.018733     -0.062512
O	      4.10153      8.44718      6.14538        -0.030163      0.050058      0.080973
O	      6.21041      8.37760      8.42436        -0.087858      0.037624      0.041243
O	      6.16407      6.26924     10.36846        -0.016410      0.001600      0.122248
O	      8.21344      8.36257     10.35259        -0.028337      0.014160     -0.022301
