# total energy = -215.21295789 eV
 
CRYSTAL
PRIMVEC
-0.007316 6.335847 6.203227 
6.160126 0.006462 6.189407 
4.116096 4.223998 -0.005087 
PRIMCOORD
36 1
Li	      0.17747      6.32158      6.15422         0.098526     -0.083008     -0.012381
Li	      2.01460      8.33295      6.18513         0.063772     -0.184085      0.063456
Li	      2.07306      6.30394      8.08860         0.035616      0.028191     -0.098637
Li	      6.13965      6.37283      4.19976        -0.053281      0.064419      0.044567
Li	      4.09171      2.16886      6.14888        -0.025063      0.009698      0.002915
Li	      2.07245      6.32883      4.28411        -0.019434     -0.037404      0.058265
Li	      2.08836      4.36531      6.16785        -0.024165      0.199047     -0.022367
Li	      4.00506      6.25332      6.19344        -0.083269      0.048513      0.039834
Li	      8.14327      8.46859      8.22681        -0.012547     -0.003021      0.006425
Cr	      8.20523      4.23337      4.16755         0.018504     -0.142941     -0.077556
Cr	      6.15467      2.13023      8.22409         0.019779     -0.011396      0.015556
Cr	      6.17978      6.33050      8.21777        -0.000423     -0.009749      0.002706
Fe	      4.08127      8.39637      8.19971        -0.142090      0.058841     -0.297062
Fe	      2.08181      4.23072      2.06394        -0.031864     -0.048088     -0.077436
Fe	      4.09054      8.38864      4.33167         0.014970      0.045949      0.093100
Co	      6.13410      4.25712      6.17004         0.026430      0.065504      0.144186
Cu	      6.21507      8.43306     10.34421         0.115160     -0.048063      0.043944
Cu	      4.08582      4.27204      4.18930        -0.201223      0.106086     -0.079268
O	      4.26039      4.23523      6.09854         0.189731     -0.053827      0.039302
O	      2.05127      6.32719      6.21264         0.053518      0.020086     -0.005752
O	      2.04599      2.21597      2.05340        -0.034195     -0.053539      0.071184
O	      4.07312      4.28928      2.17326         0.192323     -0.019051     -0.017768
O	      4.19646      2.02244      4.01787        -0.039387      0.075768      0.162408
O	      6.21944      4.26671      4.27112        -0.096250     -0.083561      0.060154
O	      6.15622      2.30973      6.18810        -0.041199      0.174650     -0.000935
O	      8.06710      4.25280      6.19326        -0.155928      0.032701     -0.101397
O	      1.94826      4.21547      4.08035         0.218845     -0.039461      0.072477
O	      4.08851      6.48275      4.00578         0.022119     -0.262440     -0.075314
O	      6.15673      6.15276      6.26144        -0.033672     -0.169220     -0.063956
O	      6.17130      4.21118      8.16214        -0.100526      0.000736     -0.110670
O	      8.22402      6.23658      8.22864         0.021034      0.137963     -0.040747
O	      4.12752      8.46799      6.24600         0.027845      0.018247      0.124486
O	      4.16480      6.40033      8.34448        -0.038825     -0.144419      0.082035
O	      6.13443      8.30786      8.33031         0.068290      0.023467     -0.025902
O	      6.07705      6.19716     10.26759         0.094993      0.205335     -0.007874
O	      8.25083      8.56065     10.31405        -0.148114      0.078069     -0.011980
