# total energy = -218.56547487 eV
 
CRYSTAL
PRIMVEC
-0.005222 6.161956 6.242600 
6.246249 0.004084 6.233285 
4.172592 4.110258 -0.005762 
PRIMCOORD
36 1
Li	      6.33611     10.15533      8.36887         0.041179      0.025005      0.026269
Li	      4.15886      6.10844     10.31817         0.015624      0.042115     -0.049729
Li	      6.38112      8.22695     10.26693         0.057113     -0.006375      0.045895
Li	      4.15366      4.12511      4.17377        -0.020841     -0.006615      0.028040
Li	      6.22351      4.10492      6.21507        -0.046640     -0.021002      0.010535
Li	      8.26119      6.20839     10.35899        -0.007104      0.016374     -0.032512
Li	      6.28707      8.20806      6.33911         0.029158     -0.034641      0.073819
Li	      8.16851      8.26174      8.38653        -0.036068      0.033199     -0.027376
Li	      6.21441      6.28368      8.39622        -0.019991     -0.020962      0.071113
Cr	      0.04469      6.17165      6.23915         0.041363      0.005698     -0.127311
Cr	      4.26832      8.20728      8.34709         0.049592     -0.043554      0.051507
Cr	      6.27367      6.07320      4.13805         0.074583     -0.282098      0.080842
Fe	      4.11013      2.14539      6.26851        -0.037598     -0.004407     -0.076431
Fe	      6.18643      4.18545     10.33268         0.058256     -0.020815      0.030428
Fe	      4.10542      6.05791      6.30933         0.135459     -0.020206     -0.091399
Co	      4.15531      6.14408      2.09583        -0.099072      0.038643     -0.031282
Co	      2.07475      4.08884      2.07705        -0.061990      0.085992     -0.016851
Cu	      8.28962      8.25050     12.37006        -0.048267      0.037707     -0.105062
O	      8.42527      8.23630     10.39828        -0.067742     -0.028698     -0.088439
O	      2.01218      2.14414      2.08916         0.004089      0.021975      0.081566
O	      4.04300      4.13793      2.02697        -0.018970      0.017482     -0.008798
O	      4.02078      2.07705      4.14396        -0.032149     -0.007313     -0.039966
O	      6.22928      4.27395      4.11880        -0.006395      0.155468     -0.002017
O	      6.11799      2.00883      6.40117         0.029340     -0.003106      0.098542
O	      8.42029      4.10907      6.33974         0.020826      0.048325      0.064543
O	      2.01311      3.96916      3.99897         0.035538      0.017654     -0.050849
O	      4.28136      6.19352      4.10824        -0.031585     -0.017205     -0.029430
O	      4.13091      4.11440      6.25177        -0.017654     -0.007229      0.004799
O	      6.27161      6.14091      6.10475        -0.102735     -0.001918     -0.018084
O	      6.38083      3.96774      8.33874         0.062662     -0.088160     -0.079720
O	      8.45527      6.03844      8.27845         0.074353     -0.079484      0.101972
O	      2.10443      6.27884      6.22346        -0.131465     -0.087648     -0.006804
O	      4.29241      8.22677      6.28229         0.107758      0.045316      0.001737
O	      4.19202      6.24194      8.22127        -0.013595      0.054231      0.126944
O	      6.16255      8.23178      8.36423        -0.035476      0.027611     -0.048797
O	      6.26972      6.11669     10.49546        -0.001557      0.108643      0.032309
