# total energy = -216.79725665 eV
 
CRYSTAL
PRIMVEC
0.023741 6.180711 6.281783 
6.212205 0.011509 6.294088 
4.143876 4.131104 0.005116 
PRIMCOORD
36 1
Li	      4.12720      4.11744      0.08938        -0.043426     -0.058099      0.111291
Li	      4.16042      2.09876      2.09541         0.059080     -0.057051     -0.017206
Li	      6.15494      2.06238      4.21294        -0.006982      0.074150     -0.059534
Li	      4.10867      6.05215      2.11225        -0.030060      0.078417     -0.011244
Li	      2.19537      4.20608      2.11770        -0.058583     -0.017603      0.030223
Li	      4.10330      4.08734      4.15461         0.002211     -0.021169     -0.045724
Li	      4.19046      2.10623      6.24501         0.059999      0.032918     -0.053876
Li	      2.09309      4.12308      6.28157        -0.081594     -0.026674      0.057413
Li	      8.27119      8.23198      8.35144         0.045782      0.055702      0.009047
Cr	      4.19112      6.22938     10.44399         0.060539     -0.306617     -0.022179
Cr	      2.11623      2.07966      4.12312        -0.247735      0.388153     -0.335247
Cr	      6.23664      4.14811     10.46795        -0.000309     -0.137820     -0.117893
Fe	      2.08274      2.05803      0.09893        -0.123436      0.296604      0.040627
Fe	      6.08813     10.16741      8.34868         0.302672     -0.230713      0.040924
Fe	      6.17364      4.11338      6.38895         0.140129     -0.072300      0.284730
Co	      8.27773      6.19845     10.48688         0.231027     -0.200507     -0.159958
Co	      6.27775      6.28546      8.39171        -0.317724     -0.294309      0.120541
Ni	      4.16365      6.17430      6.29463         0.112925     -0.064900      0.130265
O	      2.08666      1.95329      2.08869        -0.040527      0.013305      0.108606
O	      4.21769      4.09655      2.07481        -0.297038      0.050626     -0.063691
O	      4.06378      1.98523      4.20207         0.041594      0.104440     -0.001483
O	      6.32147      4.20055      4.10190        -0.083154     -0.025111      0.067834
O	      6.25634      2.24629      6.34993         0.008531     -0.417186     -0.026039
O	      8.14411      4.09635      6.20880         0.222983      0.088991     -0.044666
O	      2.01687      4.15709      4.19288        -0.098630     -0.745608      0.166469
O	      4.09488      6.26117      4.16834         0.956905      0.212909     -0.000142
O	      4.34611      4.13243      6.27545        -0.395495      0.021319     -0.049194
O	      6.20947      6.07225      6.15203         0.088411      0.314514      0.699542
O	      6.25796      4.35104      8.40595         0.029361     -0.134225      0.067779
O	      8.16462      6.24247      8.61245         0.065685      0.152879     -0.029330
O	      2.11687      6.21433      6.23484        -0.170342     -0.107266     -0.070430
O	      4.07839      8.21388      6.18372         0.106043      0.026650     -0.030587
O	      4.27092      6.19332      8.42542         0.155140      0.044735      0.054486
O	      6.25736      8.22867      8.34224         0.046390      0.190105     -0.073456
O	      6.26048      6.16102     10.58354        -0.939690     -0.061588     -0.846327
O	      8.35266      8.21649     10.57113         0.199313      0.832330      0.068427
