# total energy = -221.41122024 eV
 
CRYSTAL
PRIMVEC
-0.005056 6.220718 6.162195 
6.295782 -0.031205 6.188467 
4.183800 4.151357 -0.007518 
PRIMCOORD
36 1
Li	      6.33851      0.09007      6.12834         0.063852      0.016354      0.004802
Li	      8.17945      1.96377      6.16371        -0.057477     -0.090918     -0.008657
Li	      6.41166      8.13827     10.34939         0.036971     -0.008551      0.004052
Li	      6.24509      2.08272      8.13931        -0.029958      0.017578     -0.027423
Li	      6.23991      4.06392      6.23985        -0.019488     -0.001774     -0.017410
Li	      8.29016      6.29810     10.23243        -0.023280      0.000112     -0.039068
Li	      4.24498      6.16881      6.19316        -0.006510      0.028236     -0.010122
Li	      8.45928      8.21388      8.26330         0.052047     -0.055130      0.008702
Li	      6.30321      6.13413      8.27234         0.086235     -0.059463     -0.028534
Cr	      4.18385      8.28687      8.19826        -0.073483      0.092508      0.001703
Cr	      4.26113      2.08825      6.17010        -0.013841      0.142162     -0.118757
Cr	      4.14684      8.24143      4.13935         0.161075     -0.143524      0.115247
Fe	      8.46230     10.20852     10.31831        -0.193379      0.090807      0.175172
Fe	      8.29969      4.19328      8.13592         0.010732     -0.090608      0.053798
Fe	      2.12298      4.18264      6.24269         0.047035     -0.002440     -0.122862
Co	      2.08409      0.02378      2.02524         0.254677     -0.055024      0.642069
Co	      2.08508      2.07651      4.10421        -0.044848      0.004136     -0.043427
Co	      4.18834      4.19874      4.11516         0.166673      0.079773      0.050024
O	      2.17699      2.07350      2.10975        -0.051892     -0.494684      0.124130
O	      4.10220      4.08575      2.18320         0.776764      0.064300     -0.044490
O	      4.07013      2.17794      4.08416        -0.118348     -0.112905      0.012842
O	      6.18853      4.30754      3.94754        -0.112102      0.027044      0.104880
O	      6.19822      2.08165      6.11764        -0.041026     -0.071125      0.045096
O	      8.34183      4.20645      6.13966         0.007103      0.048713      0.007702
O	      2.14280      4.05665      4.10397        -0.018097     -0.043087     -0.021170
O	      4.34437      6.15527      4.10673         0.096755      0.009159     -0.024029
O	      4.16558      4.11700      6.05008        -0.017678     -0.041711     -0.084888
O	      6.37228      6.28117      6.02961         0.045231      0.042589     -0.027556
O	      6.38764      4.08595      8.35740        -0.185046     -0.015204     -0.055763
O	      8.36710      6.12932      8.15589        -0.002939      0.138556     -0.058745
O	      2.10701      6.16652      6.34439        -0.001899     -0.002446     -0.311559
O	      4.29921      8.25197      6.19160         0.015083      0.030020     -0.006988
O	      4.16828      6.29665      8.36326        -0.962004     -0.080542     -0.233726
O	      6.19353      8.38314      8.23153         0.100021      0.589278      0.013011
O	      6.21992      6.05915     10.31117         0.047464      0.019414     -0.044898
O	      8.46519      8.27691     10.30614         0.005576     -0.071604     -0.033157
