# total energy = -212.43715404 eV
 
CRYSTAL
PRIMVEC
0.029537 6.200082 6.309347 
6.221489 0.016137 6.322453 
4.152496 4.147063 0.005975 
PRIMCOORD
36 1
Li	     10.24536      4.18979      6.30733        -0.006436      0.015169     -0.077928
Li	      8.25192      4.18230      4.34027         0.006530     -0.003715     -0.015417
Li	      6.19547      2.10910      4.25612        -0.022772     -0.026722     -0.019208
Li	      8.31654      4.13164      8.32028        -0.040649      0.029401     -0.023254
Li	      6.31960      6.18304      4.28052        -0.016399     -0.035604      0.026100
Li	      8.29815      6.16118      6.29125        -0.024350     -0.151546     -0.008450
Li	      6.33607      4.14822      6.25993        -0.040161      0.006454     -0.028115
Li	      6.25601      8.22500      6.34300         0.065047      0.033093      0.002165
Li	      8.31935      8.28800      8.43966         0.023094      0.016572      0.080817
Cr	      4.20097      4.07980      4.29882         0.061465      0.000182      0.052932
Cr	      8.31232      6.24810     10.54439        -0.092789      0.097993     -0.018211
Cr	      4.20622      6.19754      6.33841         0.109764     -0.123043      0.031906
Fe	      6.24389      2.10635      8.28593        -0.134493      0.116851      0.507310
Fe	      6.27224      4.20233     10.53736         0.038072      0.035025     -0.176088
Fe	      6.30905      6.26703      8.35751         0.046420     -0.186593      0.132624
Cu	      4.12215      2.11031      2.13892         0.013713     -0.004271      0.118397
Ni	      8.27518      2.12981      6.30079        -0.416490      0.896672      0.020970
Ni	      6.25403     10.30087      8.43610         0.075263     -0.018573     -0.116289
O	      8.29368      3.98838      6.30230         0.105375      0.404679      0.012769
O	      2.05524      2.01765      2.01679         0.006390     -0.008665      0.342659
O	      4.14843      4.17259      2.24805        -0.127514      0.021135      0.058782
O	      4.11554      2.17665      4.15916         0.035076      0.063514     -0.021762
O	      6.04571      4.15764      4.15325        -0.145161     -0.062934      0.194591
O	      6.24046      2.05535      6.41769         0.201291     -0.107366     -0.442837
O	      2.13733      4.22546      4.23447         0.108704     -0.050752      0.031589
O	      4.13205      6.21232      4.25297         0.067280     -0.095184      0.001495
O	      4.13602      4.21394      6.16202         0.030088     -0.010386     -0.115483
O	      6.19866      6.17339      6.42791        -0.066240      0.011612     -0.165346
O	      6.23405      4.12197      8.56193         0.027734      0.024406     -0.136541
O	      8.33754      6.24911      8.51825         0.077931      0.016833     -0.006870
O	      2.17665      6.34623      6.26744         0.102086     -0.729547     -0.052219
O	      4.16977      8.23283      6.26889        -0.073509     -0.089920      0.129757
O	      4.19081      6.28112      8.32502         0.055519     -0.056636     -0.030551
O	      6.16522      8.25051      8.40669        -0.011672      0.021009      0.009740
O	      6.32712      6.16707     10.44205         0.016602      0.099976      0.058639
O	      8.41122      8.25235     10.60212        -0.054810     -0.149119     -0.358672
