# total energy = -213.24868311 eV
 
CRYSTAL
PRIMVEC
-0.000781 6.264177 6.251760 
6.209148 0.012612 6.238361 
4.155828 4.183546 -0.007961 
PRIMCOORD
36 1
Li	      6.24867      8.33505     10.38852         0.000973     -0.017833      0.029646
Li	      4.19273      6.24121      2.12943         0.033770     -0.063426      0.041935
Li	      8.21542      4.22261      8.39939        -0.085646      0.015465      0.043807
Li	      4.12752      4.24083      4.16368        -0.026015      0.034770      0.009949
Li	      6.16573      4.20727      6.29663        -0.015158      0.017502      0.066577
Li	      0.04009      4.14927      4.15421         0.032952     -0.048697      0.021011
Li	      2.08407      6.23044      4.14598         0.022242     -0.040903     -0.020487
Li	      2.08497      4.16836      6.21176         0.021211     -0.013009     -0.081505
Li	      4.15955      6.24598      6.17512         0.002145     -0.020706     -0.089644
Cr	      0.02751      6.22766      6.23810        -0.034735      0.064593      0.069344
Cr	      8.27124      8.36684     12.46850        -0.034370     -0.097106      0.085454
Cr	      8.28726      4.18086      4.15713         0.064044      0.191056     -0.023468
Fe	      6.12701      6.35350      4.19269         0.163851     -0.073932     -0.147171
Fe	      4.17699      2.18275      6.24319         0.035718     -0.057617      0.003226
Fe	      4.19860      4.15249      8.32698        -0.078019     -0.103211      0.017336
Cu	      6.20614     10.44386      8.31012         0.097518      0.020579     -0.039356
Cu	      6.23565      6.26208      8.31637        -0.049831      0.078568      0.079008
Ni	      4.17132      8.39485      8.31674        -0.055237     -0.003652      0.034843
O	      6.12447      4.30545      8.33104         0.145069     -0.008310      0.023759
O	      6.25277      8.36188      8.35110         0.043959     -0.040645     -0.053523
O	      2.11589      2.03054      2.03538        -0.086665      0.054091     -0.123849
O	      4.23384      4.14902      1.99875        -0.038523      0.058114     -0.103964
O	      4.00642      2.01438      4.19095         0.011412      0.254016      0.118789
O	      6.29575      4.33560      4.04897        -0.400924     -0.061719     -0.043907
O	      6.20064      2.02450      6.23326         0.046375     -0.056024      0.008438
O	      8.34121      4.17236      6.16899         0.093490     -0.089619      0.091062
O	      2.08058      3.98039      4.14679        -0.013456      0.113896      0.002265
O	      4.32578      6.26492      4.16193        -0.140627      0.012391     -0.031670
O	      4.15728      4.10954      6.32231         0.000214      0.063404      0.035406
O	      6.29777      6.24460      6.19477        -0.019853      0.021410      0.347041
O	      8.21913      6.31817      8.28695         0.064284      0.032033      0.014408
O	      2.02607      6.33679      6.28664         0.001752      0.009373      0.031865
O	      4.05486      8.42469      6.27398        -0.007519      0.062362     -0.080998
O	      4.15414      6.25812      8.40346         0.007082     -0.102276     -0.248901
O	      6.09929      6.31803     10.45223         0.198822     -0.038070     -0.162303
O	      8.26057      8.45510     10.42602        -0.000305     -0.166869      0.075578
