# total energy = -212.41089753 eV
 
CRYSTAL
PRIMVEC
0.066429 6.508906 6.152118 
6.198008 0.023638 6.194169 
4.144350 4.380018 0.003017 
PRIMCOORD
36 1
Li	      4.14594      4.37876      0.03513         0.027080     -0.041361     -0.043765
Li	      2.15902      8.69219      6.15356         0.086259     -0.028098     -0.035080
Li	     10.35813      6.56312      8.23994        -0.019255     -0.002250      0.135301
Li	      8.35326      4.44492      8.20042         0.062801     -0.026703      0.067575
Li	      4.11671      4.47512      4.05378        -0.063089      0.151101      0.001271
Li	      8.32569      6.50239      6.25032        -0.002594     -0.042052     -0.061647
Li	      4.22393      8.68188      4.10583         0.104079     -0.103104      0.048959
Li	      2.08379      6.54577      4.19089         0.035838     -0.007101      0.056174
Li	      4.15516      6.60291      6.14623        -0.046971      0.077227     -0.083985
Cr	      2.00452      0.07151      2.01941         0.366484      0.149718     -0.182542
Cr	      2.08997      4.36069      6.15669        -0.222626     -0.018356     -0.135909
Cr	      8.34358      8.63200      8.23581        -0.171103     -0.401868      0.007473
Fe	      8.43295     10.86939     10.34250         0.037533      0.173476      0.068206
Fe	      6.15753      6.63141      4.12543         0.119921      0.159996      0.210189
Fe	      6.24903      4.25287      6.17681        -0.018863      0.233392     -0.087339
Cu	      4.08842      2.29521      2.02486        -0.142779      0.413096     -0.343556
Cu	      6.24947      8.65354     10.30092        -0.090980     -0.039641      0.094859
Cu	      6.27186      6.44290      8.20847         0.219024     -0.096723     -0.037037
O	      8.23927      6.76186      8.31440         0.017201      0.417103     -0.113882
O	      4.28014      8.71778      6.29891         0.065543     -0.028869     -0.404991
O	      6.20358      6.45700     10.16308        -0.058548      0.000501      0.131548
O	      2.14934      2.03606      2.05252        -0.049964      0.008266     -0.018378
O	      4.27768      4.42550      2.06162        -0.509824     -0.301744      0.057970
O	      4.07113      2.10717      3.96526         0.466477     -0.143191      0.358613
O	      6.24389      4.61800      4.12655         0.051000     -0.280851      0.019304
O	      6.17815      2.31193      6.04345         0.034722     -0.141229      0.052076
O	      8.21202      4.42993      6.13546        -0.019425     -0.066348      0.074199
O	      2.12579      4.18254      4.19719         0.107994      0.158370     -0.052426
O	      4.35590      6.58548      4.11771        -0.543087     -0.083743     -0.049200
O	      4.15761      4.36691      6.33474         0.066370     -0.021810      0.117907
O	      6.26611      6.64567      6.21728         0.034809     -0.071078      0.021596
O	      6.13632      4.24612      8.13642        -0.023273      0.135884      0.089472
O	      2.13525      6.36451      6.21911        -0.032631      0.021754      0.045043
O	      4.14116      6.27904      8.29487         0.058494     -0.029457     -0.052488
O	      6.27893      8.90573      8.25931         0.139677     -0.119036      0.152704
O	      8.25979      8.81472     10.19596        -0.086293     -0.005272     -0.108215
