# total energy = -213.12469631 eV
 
CRYSTAL
PRIMVEC
0.030296 6.231320 6.335725 
6.192168 0.034317 6.331404 
4.124567 4.147927 0.026155 
PRIMCOORD
36 1
Li	      0.03909      6.22923      6.34240         0.044621     -0.018277     -0.025732
Li	      4.13661      2.10866      2.13815         0.003455     -0.010150      0.050437
Li	      2.08790      2.11741      4.24964         0.000508      0.009028      0.049289
Li	      4.09761      4.15851      4.25792         0.006142      0.003584      0.038532
Li	      6.16452      4.20367      6.36821        -0.063305      0.038188     -0.044790
Li	      2.09617      6.19464      4.20599         0.001531      0.007327     -0.038984
Li	      6.23278      8.29459      6.37579        -0.005622     -0.005512      0.022604
Li	      8.26364      8.27592      8.41374        -0.043804     -0.011702     -0.033884
Li	      6.26399      6.25836      8.41979         0.009606      0.022623      0.010195
Cr	      4.13213      0.04661      4.21536        -0.128816      0.050039     -0.135280
Cr	      6.21586      8.30562     10.55115        -0.001609      0.028328     -0.037486
Cr	      0.12316      4.14501      4.19020         0.174355      0.118574      0.010998
Fe	      8.22705      2.13475      6.38047         0.124252     -0.138092     -0.043914
Fe	      6.14348      4.11742      2.14660         0.093211      0.024052      0.011509
Fe	      4.23239      6.13701      6.31335        -0.105647      0.092593      0.115098
Ni	     10.28724      6.26268      8.48914         0.031606     -0.061173      0.012172
Ni	      2.10472      4.16575      2.12295         0.070866     -0.065157     -0.020406
Ni	      8.21328      6.29577      6.37880        -0.067180      0.037280     -0.080362
O	      2.03792      2.08493      2.04799         0.057539      0.037043      0.048129
O	      4.23612      4.17838      2.12635        -0.347211     -0.007751     -0.028668
O	      4.19527      2.02560      4.32660         0.036577      0.097070     -0.063044
O	      6.25801      4.07413      4.16852        -0.120795      0.005407      0.145566
O	      6.24478      2.09161      6.25357        -0.102128     -0.010108     -0.005763
O	      8.26303      4.13562      6.28994        -0.016998      0.038335      0.083451
O	      1.94982      4.19735      4.19260        -0.083114     -0.042601      0.027090
O	      4.13923      6.34724      4.28193         0.030774     -0.003010     -0.107156
O	      4.14302      4.25736      6.32869        -0.025639     -0.272552      0.028296
O	      6.10205      6.24017      6.39372         0.309360      0.013760      0.005442
O	      6.21658      4.14776      8.63751        -0.124558      0.059827     -0.024741
O	      8.30376      6.18038      8.34888        -0.060953      0.140507      0.091109
O	      2.22507      6.30007      6.43219        -0.194025     -0.039651     -0.095863
O	      4.09344      8.20579      6.18227         0.035833      0.129365     -0.045307
O	      3.99004      6.27567      8.50155         0.290084      0.028151     -0.000820
O	      6.17555      8.40613      8.58593         0.016640     -0.166844      0.037633
O	      6.15325      6.25339     10.53773         0.121797     -0.048800      0.031142
O	      8.29782      8.39929     10.62942         0.032645     -0.079703      0.013509
