# total energy = -220.06460713 eV
 
CRYSTAL
PRIMVEC
-0.011369 6.211568 6.358491 
6.228135 0.009520 6.337329 
4.165999 4.141037 -0.007586 
PRIMCOORD
36 1
Li	      6.23300      6.20538     12.64750         0.021242     -0.027348     -0.016382
Li	     10.33285      6.26981      8.50824         0.007636      0.001059      0.049911
Li	      2.06069      4.19301      2.23564         0.003396     -0.000713      0.012454
Li	      4.03984      4.24743      4.13410        -0.012936      0.008996     -0.116779
Li	      6.23979      4.14847      6.46113         0.007327      0.005082      0.080906
Li	      6.29412      4.23725     10.45111        -0.000040     -0.005558     -0.013253
Li	      2.07529      6.03121      4.17039         0.004318      0.011956     -0.009977
Li	      2.05255      4.16661      6.24715        -0.036115      0.024876     -0.047001
Li	      6.27435      6.09160      8.54576         0.027606      0.001751      0.037565
Cr	      6.20899      4.14352      2.10146        -0.020195     -0.035826      0.020618
Cr	      4.16895      8.30593      8.45162         0.041071      0.024285     -0.042733
Cr	      6.22272      8.26226     10.59127         0.038409      0.047429     -0.025564
Fe	      8.27629      2.12792      6.32155         0.007940      0.028359      0.006166
Fe	      2.00186      2.22173      4.25436        -0.015538     -0.209096     -0.068202
Fe	      8.30496      6.19843      6.44855         0.011614      0.004980     -0.093884
Fe	      4.16714      6.15511      6.25676         0.039522      0.026434      0.037532
Co	      4.16349      6.21650     10.57998        -0.022883     -0.017124      0.021652
Cu	      4.25924      4.07777      8.46240        -0.081803      0.009603      0.081966
O	      6.17200      4.12491      8.47772         0.080026      0.002127     -0.008882
O	      2.14691      2.03271      2.09962         0.020897     -0.027952     -0.009912
O	      4.25094      4.04203      2.10928        -0.008702      0.015451     -0.016272
O	      4.16835      1.97296      4.20655         0.036805     -0.061637     -0.010090
O	      6.35724      4.14802      4.11666         0.086681      0.008194     -0.063305
O	      6.22771      2.08686      6.23542        -0.030971      0.013730     -0.052046
O	      8.31375      4.15929      6.16285         0.016133      0.005478     -0.103863
O	      2.08887      4.08293      4.20706         0.008448      0.130542      0.023443
O	      4.21543      6.17518      4.33310        -0.081127      0.012664     -0.089938
O	      4.14735      4.15590      6.47798        -0.013789     -0.054876     -0.064015
O	      6.25713      6.21875      6.24527        -0.004814     -0.007091      0.046265
O	      8.31407      6.26731      8.35917        -0.027751     -0.130611      0.151649
O	      2.14015      6.29608      6.42379        -0.007527     -0.053033      0.077622
O	      4.07745      8.18854      6.47276         0.031968      0.037263      0.062233
O	      4.09326      6.20948      8.55392        -0.041814      0.138281      0.033433
O	      6.18238      8.35553      8.56627        -0.027290      0.004486      0.057422
O	      6.09431      6.30293     10.57229        -0.071430     -0.001368      0.027712
O	      8.23413      8.40846     10.60673         0.013685      0.069207      0.023548
