# total energy = -219.94186243 eV
 
CRYSTAL
PRIMVEC
-0.000139 6.223614 6.263882 
6.233103 -0.001253 6.265183 
4.157877 4.152489 -0.003313 
PRIMCOORD
36 1
Li	      6.22615     10.33986      8.34477         0.045747      0.011926     -0.019923
Li	      6.27789      8.30276     10.38990        -0.000826     -0.012000      0.049290
Li	      6.25132      2.11351      8.34640         0.041622      0.015850     -0.109502
Li	      2.06746      4.15734      2.11225        -0.010396     -0.009075     -0.020633
Li	      6.14251      4.20045      6.31343         0.015182     -0.051310     -0.005498
Li	      6.22698      4.13773     10.39007         0.000334      0.010444      0.039657
Li	      2.15831      4.13462      6.29906        -0.068683      0.027173      0.016180
Li	      4.18011      6.10664      6.29650        -0.009733      0.014208      0.037752
Li	      4.12163      4.16488      8.23143        -0.053539      0.012200     -0.067223
Cr	      2.03787      2.08483      0.04971        -0.154877     -0.025240      0.172655
Cr	      8.31046     10.33000     10.41942         0.031096     -0.055974      0.063587
Cr	      6.24559      6.14089      8.29311         0.005438      0.094995     -0.210995
Fe	      4.20648      8.34282      8.31579        -0.035778     -0.241781     -0.236606
Fe	      6.16452      6.27770      4.20699         0.054476      0.071115     -0.106503
Fe	      4.20193      4.16797      4.23204         0.015098     -0.070392      0.000345
Fe	      8.30836      6.24018     10.41197        -0.013218      0.035210      0.085053
Co	      4.16550      4.16379      0.03557         0.050709     -0.322457      0.175266
Ni	      8.33440      6.26288      6.32960         0.262888     -0.136043     -0.058678
O	      2.13556      2.08677      2.09723         0.024843      0.011441      0.127370
O	      4.20587      4.07533      2.18831        -0.072569      0.259529     -0.899577
O	      4.09687      2.02542      4.16381        -0.072376      0.050171     -0.071285
O	      6.28279      4.22551      4.17750        -0.033379      0.079357     -0.008788
O	      6.24642      1.88636      6.31524         0.087138      0.289325      0.000557
O	      8.44098      4.13364      6.18136         0.138022     -0.047053      0.052655
O	      2.14185      4.16852      4.17373         0.065675     -0.055108     -0.014116
O	      4.14159      6.20279      4.16569         0.021528     -0.069481      0.013651
O	      4.19369      4.10138      6.14288        -0.072553      0.114712      0.191320
O	      6.27070      6.22665      6.25378        -0.145890     -0.004221      0.165669
O	      6.21911      4.32782      8.30946        -0.047382      0.117240     -0.018503
O	      8.17982      6.26893      8.40911        -0.094773      0.005576     -0.012999
O	      1.95641      6.29754      6.17996        -0.173550      0.001545      0.069405
O	      4.05699      8.46142      6.31427         0.027052     -0.088673      0.068164
O	      4.24405      6.25270      8.40500         0.137252     -0.025166     -0.003560
O	      6.15761      8.14109      8.33073         0.069511     -0.108347     -0.032405
O	      6.22666      6.19567     10.33670        -0.077358      0.010315      0.679854
O	      8.28949      8.30077     10.56299         0.043267      0.089985     -0.111635
