# total energy = -223.28840973 eV
 
CRYSTAL
PRIMVEC
0.041208 6.305543 6.179160 
6.244075 0.047878 6.172180 
4.185124 4.221413 0.009911 
PRIMCOORD
36 1
Li	     10.33162      4.31720      6.15581        -0.033632      0.043842      0.031412
Li	      4.15357      2.19068      2.19126        -0.024350      0.069590     -0.075180
Li	      4.32075      6.47127     10.27432        -0.008415      0.025199     -0.011309
Li	      6.17419      8.31156     10.30447        -0.067775     -0.034705      0.011286
Li	      2.20383      4.19930      2.06422         0.093595      0.010334     -0.006987
Li	      4.15322      4.10004      4.03391        -0.013083     -0.003043      0.010042
Li	      4.22159      2.04256      6.06694         0.010845     -0.021705      0.030078
Li	      6.26171      4.32828     10.23075        -0.000353      0.007596     -0.059512
Li	      6.24013      6.33246      8.36814        -0.058088     -0.036435     -0.012383
Cr	      4.20224      6.32498      2.09456        -0.035139      0.017804     -0.000288
Cr	      6.28977      4.24792      6.16480         0.032364      0.029583     -0.024952
Cr	      4.20744      6.31937      6.16601         0.063967     -0.009362     -0.007083
Fe	      8.43380      8.58453     12.24692         0.050638     -0.073598      0.053885
Fe	      6.23171      4.20707      2.20446         0.064694     -0.007760     -0.054293
Fe	      8.19178      6.34962     10.23931         0.169694     -0.095179     -0.035884
Fe	      6.25294      8.39842      6.17530         0.037567     -0.030214      0.059035
Co	      2.14110      2.13899      4.10040         0.189777      0.061600     -0.020356
Co	      8.37868      8.45995      8.27255         0.067423     -0.056515      0.009392
O	      2.05013      2.05392      2.10111         0.037624      0.068221     -0.033737
O	      4.29486      4.32729      2.02816        -0.097505     -0.020866     -0.006848
O	      4.03155      2.14175      4.11741        -0.087400      0.003574      0.002020
O	      6.27549      4.40060      4.15015         0.003328     -0.026135      0.128130
O	      6.36401      2.25371      6.23381        -0.084606     -0.025912     -0.009434
O	      8.28095      4.17623      6.21270         0.006630      0.186964     -0.018477
O	      2.12031      4.18687      4.20381        -0.012323      0.002989     -0.081930
O	      4.27794      6.32661      4.12933         0.003224      0.026046      0.033543
O	      4.20000      4.29136      6.30738         0.006339     -0.001735      0.006680
O	      6.22439      6.33604      6.08572         0.005441     -0.045606      0.066630
O	      6.14519      4.18921      8.16541        -0.063970      0.000494     -0.007367
O	      8.44100      6.47647      8.28296        -0.010598      0.025469     -0.100442
O	      2.20807      6.30639      6.13716        -0.009588      0.012697      0.119840
O	      4.22183      8.31982      6.24861        -0.027769     -0.016793     -0.005580
O	      4.13822      6.17837      8.16261         0.037514     -0.012592      0.019543
O	      6.41624      8.50167      8.17463         0.001834     -0.076773      0.073332
O	      6.34417      6.33842     10.31100        -0.251215     -0.012640      0.045324
O	      8.37957      8.37666     10.27358         0.003311      0.015567     -0.128128
