# total energy = -217.27249170 eV
 
CRYSTAL
PRIMVEC
0.001602 6.202425 6.122197 
6.284785 0.003023 6.120668 
4.195136 4.139105 -0.003196 
PRIMCOORD
36 1
Li	      6.30480      4.11357      2.09194         0.028703     -0.036022      0.043705
Li	      8.37030      4.15589      4.09748        -0.035613      0.017202      0.006302
Li	      6.30949      8.25611     10.21685        -0.007658      0.028801      0.073975
Li	      4.21360      4.10527      4.15407         0.032500     -0.012844      0.027035
Li	      4.21111      2.13915      6.06541         0.040695      0.024960     -0.028641
Li	      6.20653      4.15550      6.07087        -0.053116     -0.057512      0.022906
Li	      6.30130      4.17851     10.17732        -0.021653     -0.032943     -0.028498
Li	      8.29787      6.22415     10.20478         0.011453      0.002844     -0.014233
Li	      2.18179      4.13155      6.07967         0.008190      0.031928     -0.005195
Cr	      6.32862      6.18258     12.16265         0.095281      0.201800      0.020330
Cr	      4.16770      6.16935      6.08319        -0.096153     -0.181804     -0.185231
Cr	      6.30602      6.18862      8.19980         0.236350     -0.415094      0.067384
Fe	      8.35500      8.29482     12.07675        -0.178092     -0.015029      0.062011
Fe	      4.30121      8.30418      8.22633        -0.249261      0.260203      0.090453
Fe	     10.42969      6.22649      8.19721         0.059357     -0.013309     -0.096914
Fe	      6.33258      6.15088      4.12669        -0.004151      0.079747      0.003288
Cu	      2.10643      4.11680      2.05267        -0.098618      0.098165      0.021163
Cu	      8.32532      8.30187      8.20954         0.077540     -0.118322      0.061596
O	      4.14024      4.23153      6.23260         0.004471      0.055953     -0.128371
O	      8.33882      8.32750     10.20014         0.036603     -0.052493     -0.132571
O	      2.05482      2.07240      2.01708         0.147178      0.085358     -0.045643
O	      4.27896      4.14510      1.93104         0.143940     -0.096979      0.100594
O	      4.07372      2.08931      4.02388         0.203080     -0.012097      0.132344
O	      6.32093      4.35475      4.10174        -0.017293     -0.424402     -0.038785
O	      6.33870      1.99298      6.18655        -0.060483      0.039117     -0.126173
O	      8.51703      4.08212      6.21769        -0.136425      0.160245      0.006978
O	      2.09365      3.91935      3.97565        -0.001106      0.348081     -0.006092
O	      4.30749      6.16526      4.05907        -0.129304      0.016198      0.216624
O	      6.17434      6.22518      6.14661         0.033937      0.044867      0.082793
O	      6.18852      4.11103      8.15731        -0.039611      0.125792     -0.014954
O	      8.39009      6.19889      8.18254        -0.210129     -0.205865     -0.008005
O	      2.11128      6.27689      6.06352         0.110136     -0.133806      0.083918
O	      4.11862      8.27342      6.18998         0.161903     -0.111353     -0.126029
O	      4.29605      6.26830      8.09207        -0.196024      0.081156      0.063631
O	      6.24133      8.18268      8.21194         0.153148      0.174821     -0.059906
O	      6.30222      6.16799     10.19337        -0.049775      0.042637     -0.141792
