# total energy = -224.25812927 eV
 
CRYSTAL
PRIMVEC
0.036111 6.177862 6.272015 
6.305214 0.009907 6.298537 
4.197288 4.129831 0.012786 
PRIMCOORD
36 1
Li	      2.06576      2.08554      0.09820        -0.040693     -0.004425      0.023121
Li	      4.17077      2.10183      2.10807        -0.024097      0.001592      0.051179
Li	      6.34567      2.08302      8.30759        -0.017654     -0.003046     -0.092881
Li	      2.16336      2.09834      4.23012         0.040248      0.021393      0.008192
Li	      4.17964      4.07383      4.25326        -0.018038     -0.024528      0.051859
Li	      8.32446      6.25050      6.30258        -0.044842      0.036309     -0.024743
Li	      6.28803      4.16507      6.35422        -0.001504     -0.021992      0.003423
Li	      6.37391      8.15526      6.36208         0.030277      0.026124      0.098269
Li	      6.38019      6.18432      8.24207         0.051237      0.012930     -0.026367
Cr	      4.18243      4.11355      0.05661         0.033119      0.007947      0.044518
Cr	      0.04796      4.09057      4.15016         0.024824     -0.082895      0.013228
Cr	      4.23699      4.08716      8.30467         0.039947     -0.026052     -0.030913
Fe	      2.04560      0.13951      2.08726        -0.044831     -0.080782      0.006329
Fe	      8.32523      4.22169      4.30972         0.014631     -0.042155     -0.065722
Fe	      6.21821      2.12215      4.25880         0.012681      0.017846     -0.079024
Fe	      2.19202      6.11296      4.18291        -0.045429      0.043364      0.083570
Fe	      4.41244      6.18399      6.29504        -0.176610      0.034449      0.008683
Co	      8.39426      4.09414      8.34369         0.032761      0.022262     -0.096083
O	      2.09960      2.08637      2.10146        -0.027179      0.152767     -0.012227
O	      4.16108      4.12424      2.03449        -0.064494     -0.014607     -0.026726
O	      4.27227      1.98804      4.17751        -0.092709      0.133050      0.004619
O	      6.36215      4.11719      4.14899        -0.060884      0.016782      0.004771
O	      6.32978      1.98911      6.16868         0.004004     -0.048992      0.147306
O	      8.47252      4.11033      6.33409         0.011981     -0.006289      0.073402
O	      2.04696      4.15290      3.98794         0.028420     -0.101698      0.017846
O	      4.13423      6.23114      4.27998         0.080883     -0.004762     -0.069343
O	      4.21372      4.19914      6.36275         0.001499     -0.072115      0.011193
O	      6.26366      6.20832      6.28610         0.243565     -0.014459      0.000545
O	      6.36134      4.11559      8.45520        -0.031740     -0.017229      0.054819
O	      8.41363      6.14964      8.49955        -0.015395      0.009902     -0.077265
O	      2.06614      6.17325      6.27399         0.019020     -0.026832     -0.014064
O	      4.23940      8.23950      6.18107        -0.018469      0.085673     -0.070351
O	      4.15848      6.11988      8.39620         0.040262      0.019628      0.032688
O	      6.44048      8.33420      8.49816        -0.006089     -0.020170     -0.050850
O	      6.31637      6.15576     10.55962         0.027707     -0.053271     -0.023984
O	      8.48409      8.25035     10.38626        -0.006411      0.024280      0.020982
