# total energy = -222.00380948 eV
 
CRYSTAL
PRIMVEC
0.019482 6.244625 6.318175 
6.187330 0.016966 6.320415 
4.125928 4.165755 0.010266 
PRIMCOORD
36 1
Li	      4.11976      4.10498      0.07220         0.045625     -0.041634      0.008368
Li	      2.14293      8.35308      6.32770         0.095173     -0.067714     -0.015055
Li	      2.07695      6.27311      8.31182         0.027638      0.000762     -0.098845
Li	      8.26250      4.16426      8.32470         0.028342     -0.039199     -0.056207
Li	      4.10625      4.19696      4.22904        -0.028962      0.012682     -0.011046
Li	      8.26274      6.24671      6.37043        -0.029980      0.002609      0.004115
Li	      4.14465      8.30279      4.32581        -0.000465      0.008327      0.147757
Li	      4.10360      6.26873      6.36974        -0.016822      0.053215      0.045387
Li	      4.15158      4.18111      8.36960        -0.038878      0.012708      0.006855
Cr	      4.10396      2.13711      2.07580        -0.048197      0.093829     -0.074430
Cr	      8.28870     10.38832     10.59306         0.077775     -0.075515     -0.152786
Cr	      6.15430      6.29571      4.24644        -0.061940      0.128103     -0.033426
Fe	      6.19057      2.11514      4.32714        -0.081238     -0.041637     -0.176154
Fe	      4.13014      6.11643      2.02201         0.016753      0.108230      0.052372
Fe	      2.14575      6.23928      4.23813        -0.015231     -0.045199      0.099524
Fe	      2.14840      4.24267      6.32658        -0.211005      0.066254      0.050382
Fe	      6.22072      6.17645      8.36303         0.036177      0.163888      0.005401
Cu	      6.15103      4.16716      6.34214        -0.124391      0.025166     -0.051660
O	      8.19276      4.16833      6.20922        -0.154570      0.014946      0.136847
O	      2.05851      2.07561      2.22751         0.037545      0.018727     -0.004586
O	      4.13753      4.18098      2.09416         0.009670     -0.153833      0.043074
O	      4.10583      2.02764      4.14663        -0.019519     -0.017188      0.066461
O	      6.22932      4.18660      4.33674        -0.005350      0.047220     -0.047621
O	      6.13998      2.07700      6.30451         0.024596     -0.044663      0.066407
O	      2.05802      4.14982      4.31139        -0.012550     -0.065345     -0.178255
O	      4.14535      6.28256      4.07328         0.124535      0.015558      0.036003
O	      4.04898      4.18784      6.33746         0.661738     -0.016541     -0.007745
O	      6.19702      6.33510      6.31526         0.011970     -0.145303     -0.024101
O	      6.18123      4.18655      8.27265         0.023146     -0.176068      0.077234
O	      8.25524      6.23543      8.55180        -0.043682      0.005414     -0.154454
O	      2.12477      6.19679      6.18654        -0.040662      0.206724      0.098673
O	      4.27428      8.34705      6.43818        -0.270377     -0.025609      0.000791
O	      4.21755      6.33939      8.53353        -0.063813     -0.029502      0.033536
O	      6.14427      8.30251      8.47623         0.025780      0.000338      0.097282
O	      6.20579      6.31057     10.45299        -0.073038     -0.073105      0.030296
O	      8.18259      8.34717     10.55050         0.094209      0.073356     -0.020390
