# total energy = -221.18965578 eV
 
CRYSTAL
PRIMVEC
0.023297 6.212092 6.382180 
6.181293 0.030547 6.374543 
4.136640 4.152093 0.004761 
PRIMCOORD
36 1
Li	      2.07147      2.07913      0.10246         0.004109     -0.021661      0.059939
Li	      6.14682      4.20490      2.16222         0.042476     -0.009322      0.039854
Li	      4.10272      2.11210      2.16553        -0.013824     -0.005243      0.040353
Li	      8.20900      4.21038      4.24689         0.052229     -0.004957      0.006575
Li	      4.21744      6.13812      2.12725         0.044380     -0.021540      0.023767
Li	      2.12121      4.09530      2.12989        -0.005765     -0.017785      0.017781
Li	      4.15390      4.11374      4.15583        -0.001907      0.006091     -0.048164
Li	      2.08311      4.17327      6.38144        -0.005734     -0.013937     -0.046096
Li	      4.11289      4.17596      8.48776        -0.002114      0.038864     -0.013626
Cr	      6.17811      2.13366      4.20845         0.047458      0.046781     -0.040460
Cr	      2.13500      2.07622      4.14513         0.037987      0.041276      0.083958
Cr	      2.11874      6.16480      4.19985        -0.041078      0.012310     -0.057435
Fe	      4.08509      4.09743      0.21038         0.094630     -0.003025     -0.345198
Fe	      6.25100      4.12016      6.41310         0.001644      0.000974      0.129422
Fe	     10.27753      8.33651     10.61832        -0.050920      0.011837     -0.119402
Fe	      4.04855      6.20028      6.46226         0.035802      0.081567     -0.019008
Fe	      6.19757      6.29085      8.45496        -0.036238      0.002049      0.024591
Ni	      4.13273      2.13813      6.38407        -0.006799      0.005792      0.167128
O	      2.07478      2.04531      2.28226        -0.017521      0.016087     -0.074692
O	      4.17037      4.16149      2.03307        -0.000676     -0.028720      0.370958
O	      4.13258      2.11511      4.32798        -0.034830     -0.029358     -0.182002
O	      6.24071      4.16266      4.36339        -0.069874      0.032790     -0.131581
O	      6.18312      2.10134      6.26609         0.163733     -0.071757      0.061462
O	      8.26304      4.21464      6.40218        -0.009369     -0.086448     -0.034440
O	      1.97598      4.11954      4.23687         0.115203      0.005919     -0.005955
O	      4.15404      6.28953      4.31412         0.027157     -0.144332     -0.089469
O	      4.23712      4.21670      6.40585        -0.054574      0.003783     -0.041862
O	      6.18358      6.20254      6.35464        -0.071777      0.056624     -0.144982
O	      6.18579      4.31485      8.51515         0.008341     -0.211310     -0.021389
O	      8.15127      6.24984      8.55501         0.167959      0.010995      0.063521
O	      2.08743      6.17233      6.23441        -0.132714      0.067633      0.018746
O	      4.11165      8.30626      6.25125         0.022187     -0.064046      0.065543
O	      4.25833      6.27756      8.39373        -0.190659      0.002948      0.134275
O	      6.20010      8.20454      8.62139         0.010059      0.211768      0.015476
O	      6.26768      6.26146     10.61117        -0.037926      0.057042      0.083040
O	      8.25756      8.20717     10.58915        -0.091057      0.020309      0.009373
