# total energy = -226.39540766 eV
 
CRYSTAL
PRIMVEC
0.010179 6.353724 6.233305 
6.324478 0.021619 6.221565 
4.230703 4.242451 0.000278 
PRIMCOORD
36 1
Li	      6.33706      0.15396      6.32412         0.043341      0.079445     -0.047010
Li	      2.02751      2.10146      0.07890        -0.043227      0.005272      0.046049
Li	      6.19035      4.25667      2.08961        -0.119205     -0.018753      0.008203
Li	      4.24581      2.20836      2.09543         0.030654      0.014730     -0.031343
Li	      6.25368      2.18624      4.15383        -0.092812      0.006424     -0.034062
Li	      0.05595      1.99116      1.97099         0.027364     -0.065453      0.008446
Li	      4.29342      4.16954      4.06556         0.044173     -0.032737     -0.019787
Li	      4.32988      2.11118      6.18127         0.021518     -0.063155     -0.031398
Li	      8.40547      8.50152      8.29455        -0.060119      0.028889      0.018305
Cr	      8.43079      4.25724      4.15644        -0.011622      0.006740      0.005607
Cr	      4.20439      6.37736      6.29117        -0.077637      0.052090      0.026744
Cr	      6.34332      6.39496      8.29214         0.038027      0.119042      0.040601
Fe	      2.28621      4.20825      1.96326        -0.098890     -0.000053      0.039431
Fe	      2.20214      2.09082      4.05557        -0.089317     -0.047271      0.105631
Fe	      6.27964      4.04839      6.25571        -0.012692      0.115726     -0.076685
Fe	      4.22671      8.46460      4.15530        -0.060180      0.055734      0.013570
Fe	      8.44672      6.47673     10.36152         0.005509      0.003273      0.071033
Fe	      6.37600      8.52286      6.31896         0.032789      0.038197     -0.021857
O	      2.07678      2.22129      2.15481        -0.026141     -0.098599     -0.136842
O	      4.15052      4.25629      2.07338         0.155725     -0.010282      0.027199
O	      4.12495      2.00958      4.17574         0.133568      0.002509     -0.012985
O	      6.41951      4.32766      4.20686        -0.052904     -0.080252     -0.079231
O	      6.29140      2.20632      6.20739         0.035247     -0.201189     -0.016130
O	      8.34665      4.25132      6.19532         0.024996     -0.006406     -0.089027
O	      2.05262      4.23442      4.17730         0.095927      0.026053      0.019755
O	      4.19848      6.44406      4.24863         0.069408     -0.071349     -0.016908
O	      4.22685      4.35550      6.21557        -0.036816      0.011994      0.003884
O	      6.23844      6.40829      6.24767         0.063057     -0.048674     -0.035044
O	      6.42154      4.35939      8.28737        -0.028118      0.029161      0.104832
O	      8.36983      6.30535      8.42138        -0.029526      0.056011     -0.153460
O	      2.18622      6.29218      6.15139         0.024755      0.092247      0.070787
O	      4.33489      8.40544      6.15501        -0.041879     -0.052567      0.054295
O	      4.33742      6.36119      8.32639         0.035597     -0.031168     -0.008297
O	      6.36051      8.40129      8.22994         0.036783     -0.040522      0.144567
O	      6.31759      6.31452     10.32228         0.022347      0.018062      0.004820
O	      8.54756      8.48332     10.37051        -0.059700      0.106830     -0.003692
