# total energy = -207.02895668 eV
 
CRYSTAL
PRIMVEC
-0.005009 6.151959 6.279892 
6.195046 -0.039100 6.314109 
4.096782 4.090653 0.007792 
PRIMCOORD
36 1
Li	     10.18451      4.08971      6.35423         0.013566      0.014914      0.018835
Li	      8.23717      4.05912      4.30754         0.005785      0.051270      0.095357
Li	     10.21519      6.15032      8.45158         0.083650     -0.074048      0.030753
Li	      8.27070      4.12601      8.34410         0.061767     -0.040860     -0.027254
Li	      4.10680      4.13934      4.12665        -0.001071     -0.016499     -0.077225
Li	      6.25250      4.02166      6.44499         0.017592      0.046587      0.047700
Li	      6.18137      4.05895     10.38743         0.027151     -0.002646      0.075877
Li	      8.30178      6.08925     10.38772        -0.011976     -0.035783      0.068755
Li	      6.23101      5.97835      8.47360        -0.047938      0.052597      0.030594
Mn	      2.04874      4.08994      6.23529        -0.210078      0.056735     -0.123726
Cr	      6.12549      4.09052      2.10518        -0.081202      0.082201     -0.195935
Cr	      6.17614      8.08324     10.51595        -0.046073     -0.276430      0.065402
Cr	      6.13009      6.11659      4.20953        -0.264405      0.078463     -0.064574
Co	      4.12471      6.09661      6.28200        -0.057085      0.148868     -0.040637
Cu	      8.19227      2.14466      6.28963         0.145677     -0.013214      0.077874
Ni	      4.11456      2.03207      2.13419         0.001702      0.027378      0.061015
Ni	      8.27938      6.06755      6.36729        -0.038543     -0.025243     -0.125720
Ni	      8.26815      8.13876      8.42365         0.906768     -0.329214      0.018240
O	      8.21270      4.08431      6.35227         0.031078     -0.112047     -0.068197
O	      2.09282      1.98421      2.16714        -0.227264      0.040282      0.006211
O	      4.20116      4.02318      2.07298        -0.135869      0.230198      0.034234
O	      4.18481      2.03683      4.24977        -0.041048      0.025530      0.008603
O	      6.17897      4.06177      4.07193         0.004697      0.047897      0.176449
O	      6.20780      2.03548      6.15723        -0.048478     -0.012214     -0.045150
O	      2.05148      4.02484      4.36320         0.020797     -0.197503      0.124794
O	      4.19385      6.12508      4.36829         0.221486     -0.021126     -0.025803
O	      3.98028      4.13251      6.33979         0.055153      0.012792      0.020748
O	      6.10552      6.23088      6.23154        -0.080305      0.029758     -0.076234
O	      6.03618      4.06220      8.41958         0.110227      0.072438      0.050751
O	      8.24626      6.20238      8.32902        -0.278724     -0.027770      0.196194
O	      2.17971      6.03820      6.32618         0.034490     -0.038200     -0.032612
O	      4.17068      8.04218      6.36472         0.089608     -0.075231     -0.182485
O	      4.05794      6.08777      8.23482        -0.068702      0.016231     -0.050885
O	      6.20747      8.21124      8.35156        -0.165838      0.043033     -0.008770
O	      6.17082      6.29727     10.47620         0.023633      0.281854      0.028679
O	      8.08087      8.21565     10.51754        -0.050227     -0.060997     -0.091855
