# total energy = -209.17293224 eV
 
CRYSTAL
PRIMVEC
-0.020892 6.372760 6.067421 
6.130705 -0.019076 6.065513 
4.056400 4.216325 0.018555 
PRIMCOORD
36 1
Li	     10.17215      4.21145      6.11060         0.034310      0.002297      0.078133
Li	      5.99027      4.14141      2.07353        -0.066789     -0.101882     -0.040340
Li	      4.09641      2.17380      2.04551         0.043454      0.001003     -0.013214
Li	      4.02207      6.33484      2.08981        -0.035922     -0.015002     -0.042026
Li	      4.05128      4.28507      4.04600        -0.024241      0.083821     -0.032723
Li	      6.06428      4.19113      6.10696        -0.033691     -0.009409      0.088987
Li	      8.13650      6.32411     10.08279        -0.002982      0.025397     -0.010685
Li	      4.09281      4.20440      8.05690        -0.009456     -0.018493     -0.071131
Li	      6.15638      6.34699      8.10084        -0.008911      0.056728      0.006100
Mn	      4.06513      6.32566      6.12302         0.030837     -0.034433      0.215243
Cr	      2.00467      2.06408      0.05622         0.035302     -0.289444      0.079781
Cr	      4.05579      6.32382     10.03381         0.353402      0.223962     -0.306324
Cr	      8.18581      4.28425      8.10377         0.140640      0.018608     -0.179498
Co	      6.11067      8.43981     10.06780        -0.335759     -0.210223     -0.659824
Cu	      2.01632      2.13148      3.99779         0.131019     -0.180379     -0.141503
Cu	      4.12130      2.15209      6.08258        -0.101444     -0.022677      0.158179
Ni	      6.14112      4.22234     10.06952        -0.190369      0.147157      0.028465
Ni	      2.03583      4.30072      6.11228        -0.054902      0.103406      0.109058
O	      8.16098      6.21263      7.99064         0.028387     -0.035632      0.097358
O	      6.08502      8.44872      8.18916         0.045113      0.029943      0.546549
O	      1.99841      2.25156      2.04606         0.032519      0.184324     -0.061663
O	      3.88673      4.22280      2.03542         0.178266      0.019121      0.038390
O	      4.12191      1.97040      4.13630        -0.391520     -0.126501      0.023646
O	      6.24365      4.00274      4.04621        -0.117927      0.482018      0.070416
O	      6.13663      2.03792      5.90197         0.003125      0.090149     -0.035795
O	      8.14306      4.02163      6.01119        -0.051029     -0.028139     -0.099688
O	      1.99768      4.36056      4.00117         0.129382     -0.126515     -0.026881
O	      4.09542      6.39809      4.20863        -0.006694     -0.086824     -0.000988
O	      4.03877      4.43890      6.08755         0.234190      0.091556     -0.070647
O	      6.05001      6.42882      5.98169         0.189807     -0.110499      0.093074
O	      6.28696      4.21238      8.10547        -0.225919      0.006706     -0.136742
O	      2.14725      6.41051      6.12410        -0.223708      0.103951     -0.080382
O	      4.00910      8.33238      6.06971        -0.002756      0.030625      0.038109
O	      4.09128      6.36737      8.13358        -0.071081     -0.018340      0.276947
O	      5.96595      6.44733     10.11754        -0.050504     -0.322723      0.034752
O	      8.08121      8.52166     10.15093         0.395850      0.036342      0.026867
