# total energy = -209.12229944 eV
 
CRYSTAL
PRIMVEC
0.021973 6.306119 6.106629 
6.265323 0.006433 6.121719 
4.183145 4.220590 -0.001259 
PRIMCOORD
36 1
Li	      4.29202     10.45008      6.11695         0.043891      0.033808      0.077166
Li	      2.24481      6.17773      8.09584         0.004146      0.055791     -0.039278
Li	      4.29619      8.31955      8.11325         0.025966      0.015995      0.052943
Li	      6.29182      6.31663      4.10488        -0.090017     -0.036717     -0.003299
Li	      8.31524      6.33196      6.13888        -0.078420     -0.023767      0.095419
Li	      6.21095      8.35208      6.26631         0.021237     -0.089340     -0.077398
Li	      4.17630      6.37959      6.21695         0.003045     -0.052320     -0.092119
Li	      4.04381      4.36240      8.10728        -0.001798      0.016006     -0.072529
Li	      6.24002      6.45613      8.13921         0.028399      0.028084     -0.091065
Mn	      2.15347      8.41217      6.10813         0.052503     -0.075265      0.361023
Cr	      4.16415      6.27305      2.03414         0.047002     -0.021665      0.245041
Cr	      4.13225      4.13581      4.07654         0.079755      0.092640      0.030857
Cr	      6.19609      4.33217      6.12683        -0.077757      0.448539      0.096559
Co	      2.09956      4.19877      2.02433         0.015059      0.010622      0.100054
Cu	      4.26559      6.39978     10.08592         0.107534      0.160239      0.167419
Cu	      6.27493      8.42621     10.09746         0.084180      0.079601     -0.018149
Cu	      6.29375      4.24846     10.19039         0.026810      0.024983      0.054462
Ni	      2.09869      6.30026      4.08117        -0.009908     -0.052245      0.011090
O	      4.20760      6.32030      8.21809         0.021610      0.028804     -0.070474
O	      6.29828      8.45449      8.16656         0.012840     -0.020420     -0.010335
O	      6.38234      6.47596     10.19494        -0.485637     -0.153729     -0.053246
O	      2.03510      2.22199      1.92196         0.016069      0.054666     -0.177346
O	      4.03574      4.27622      2.06471        -0.143282     -0.122320     -0.078571
O	      4.26738      2.12909      4.10399        -0.262963     -0.278695     -0.013620
O	      6.14708      4.17846      4.16363         0.287810     -0.003606      0.021320
O	      6.41652      2.26040      6.14752         0.081095     -0.019357     -0.121746
O	      8.24041      4.11885      6.15147        -0.003092     -0.084939      0.011659
O	      2.09401      4.17855      3.97587        -0.009586     -0.049387     -0.091819
O	      4.10041      6.14106      4.01739         0.297530      0.076997     -0.069313
O	      4.34758      4.13892      6.08240         0.072252      0.000872      0.034193
O	      6.32459      6.12836      6.11683        -0.088358     -0.259083     -0.001379
O	      6.39031      4.10584      8.19253         0.050072      0.004871     -0.141739
O	      8.44359      6.13032      8.20406        -0.020413     -0.069954     -0.294924
O	      2.10200      6.52986      6.05499         0.021149      0.133195      0.259765
O	      4.07025      8.45319      5.99177        -0.136903      0.033762      0.012960
O	      8.40194      8.49765     10.27025         0.008183      0.113334     -0.113582
