# total energy = -209.24855555 eV
 
CRYSTAL
PRIMVEC
0.033926 6.058295 6.528164 
6.039104 0.034994 6.528242 
4.037350 4.050638 0.010815 
PRIMCOORD
36 1
Li	     10.04793      4.09677      6.55374         0.084619     -0.008603     -0.055319
Li	      2.03188      2.03951      0.01835        -0.035199     -0.009022     -0.051640
Li	      6.09519     10.09001      8.69621         0.070459      0.006480     -0.013955
Li	      4.09145      6.08151     10.87129         0.025079     -0.035194     -0.062291
Li	      4.06651      4.05592      4.22589         0.047314     -0.009588     -0.091560
Li	      6.07451      4.04178      6.50364        -0.063591     -0.010631     -0.093963
Li	      4.07420      8.07868      4.42976        -0.093733      0.013436      0.063648
Li	      4.03889      6.08581      6.54700        -0.019923     -0.001082     -0.000400
Li	      6.05738      6.07740      8.75432         0.017147      0.019833      0.181116
Mn	      4.07323      4.14333      8.75345        -0.219282      0.167110      0.189276
Cr	      4.08776      8.07423      8.65353         0.200247     -0.238823      0.098317
Cr	      6.03800      6.02692      4.33733         0.071089     -0.155202     -0.106048
Cr	      2.07211      6.04706      4.41859        -0.103852      0.178818     -0.192286
Co	      6.01405      2.09234      4.38828         0.120185     -0.071111     -0.063087
Cu	      4.07896      6.02465      2.17666         0.030817      0.098574     -0.026605
Cu	      8.01995      4.09843      8.64613        -0.089201     -0.054132     -0.006251
Cu	      8.07576      6.07657      6.53499         0.170637      0.046981     -0.191429
Cu	      2.01578      4.06028      6.50058        -0.018243      0.112256      0.062081
O	      6.17747      6.20767      6.37117        -0.108003     -0.076797      0.069522
O	      5.99437      4.01983      8.68941         0.507210     -0.130815     -0.105696
O	      2.04872      5.92806      6.37893        -0.017872     -0.035744      0.220774
O	      4.18136      8.08840      6.65307        -0.081968     -0.025785     -0.033050
O	      2.03159      1.88866      2.26674         0.151250      0.049161      0.123053
O	      3.96346      4.04422      2.12535        -0.178552     -0.000707     -0.044479
O	      4.05884      2.01715      4.13254        -0.015598      0.088932     -0.005258
O	      6.04986      4.00340      4.42895        -0.010683      0.027641      0.000470
O	      5.92533      2.06651      6.29142        -0.048686      0.007694     -0.029964
O	      8.02313      4.21837      6.72394         0.018429     -0.058641      0.126506
O	      1.99205      4.02900      4.10496         0.057670     -0.000071     -0.114297
O	      4.08187      6.05045      4.46728        -0.024606     -0.016635     -0.072000
O	      3.91810      3.94131      6.75520         0.048475     -0.018296     -0.039463
O	      8.14427      6.27776      8.92544        -0.104970     -0.026255      0.175931
O	      4.10165      6.02655      8.63947         0.043437      0.170644     -0.008169
O	      6.10688      8.13416      8.99035        -0.250938      0.012648     -0.088290
O	      6.14265      6.28825     10.90362        -0.108094      0.007470      0.008517
O	      8.00863      8.11066     10.84034        -0.071067     -0.024542      0.176288
