# total energy = -211.05212379 eV
 
CRYSTAL
PRIMVEC
-0.055412 6.195916 6.268613 
6.135548 -0.000321 6.213481 
4.096326 4.099853 -0.006196 
PRIMCOORD
36 1
Li	      6.07033      6.18252     12.45793        -0.048777     -0.035344     -0.048198
Li	      4.04998      6.20152      2.17831        -0.015893      0.004205      0.082686
Li	      8.11235      4.15206      8.37890        -0.022972     -0.030360      0.038472
Li	      3.98244      4.21289      4.09818        -0.010756      0.013047      0.018760
Li	      6.18105      4.06321      6.39329        -0.035798      0.041641      0.081578
Li	      6.11320      4.15094     10.27345        -0.019139      0.011000     -0.061739
Li	      8.18131      6.08938     10.21985         0.004795      0.003087     -0.102981
Li	      4.17300      4.08459      8.34049        -0.009816      0.016622      0.009804
Li	      6.14912      6.04557      8.39543         0.002195     -0.014323      0.014402
Mn	      6.09661      4.12013      2.06610         0.117700     -0.101332      0.175124
Cr	      6.10841      8.20856     10.40584        -0.192732      0.094463     -0.392837
Cr	      8.20693      6.16201      6.31581        -0.222055     -0.106809     -0.200332
Cr	      4.08428      6.14620      6.23032         0.184362     -0.496260      0.057666
Co	      8.15870      2.08058      6.20707        -0.092764      0.670689      0.049919
Co	      4.06917      6.18043     10.40961         0.004429      0.013051     -0.100901
Cu	      2.00885      4.12880      6.16265         0.015159      0.172977      0.371759
Ni	      4.07789      2.09430      2.06955         0.033921      0.002495      0.234554
Ni	      1.96503      2.11672      4.13882         0.036126     -0.078125     -0.095046
O	      6.12391      4.10732      8.30315         0.043670     -0.042416      0.021730
O	      2.04131      1.96245      1.96167        -0.209691     -0.131265      0.930916
O	      4.23360      4.09077      2.08083         0.109065      0.191954     -0.053455
O	      4.10050      1.94496      4.19696         0.161314     -0.075207      0.079850
O	      6.23881      4.10207      4.00068         0.079336     -0.113163     -0.142556
O	      6.14512      2.08071      6.09741        -0.213965     -0.149500      0.286525
O	      8.17137      4.08063      6.04421         0.129066      0.622616      0.086444
O	      2.00366      4.09874      4.23984        -0.031873      0.123321     -0.088322
O	      4.07190      6.15398      4.30975        -0.064193      0.058649      0.082131
O	      4.01888      4.09181      6.26112        -0.036710      0.182251     -0.068490
O	      6.12439      6.24239      6.22496        -0.091546     -0.107934      0.077946
O	      8.18060      6.14618      8.19343         0.041651     -0.065948     -0.043153
O	      2.06147      6.26227      6.37668        -0.067434     -0.915469      0.035507
O	      3.91183      8.14062      6.31487         0.740518      0.143508     -0.350548
O	      3.94118      6.22020      8.36971        -0.145622     -0.027536     -0.013350
O	      6.07105      8.38716      8.34464         0.067760      0.156591     -0.058801
O	      5.98371      6.28233     10.37674        -0.086829     -0.115709      0.117715
O	      8.09097      8.35262     10.56412        -0.152502      0.084535     -1.032778
