# total energy = -210.20299058 eV
 
CRYSTAL
PRIMVEC
0.021835 6.376548 6.080793 
6.187227 0.011572 6.091461 
4.114864 4.247829 0.018393 
PRIMCOORD
36 1
Li	      6.18209     10.50691      8.17639        -0.073000     -0.035987      0.028860
Li	      4.26475      8.56265      8.12263         0.009852     -0.041387     -0.053012
Li	      4.16579      6.42731     10.04883         0.017618     -0.016666      0.055229
Li	      6.22836      8.45488     10.08253         0.034308      0.011937      0.061888
Li	      6.20736      2.14694      8.05827        -0.029296      0.068121     -0.011915
Li	      2.12960      4.17724      2.00661        -0.079411      0.042337     -0.013168
Li	      6.17748      4.29379     10.05919        -0.106489     -0.013477      0.045169
Li	      6.15178      8.47806      6.22947        -0.076641     -0.051435     -0.012382
Li	      6.15210      6.46283      8.19145         0.119600      0.030689     -0.009432
Mn	      8.19739      6.31957     10.14615        -0.086523      0.558067     -0.179528
Cr	      2.07653      2.17415      3.94690        -0.161032      0.246552     -0.433548
Cr	      4.18321      2.18468      6.10832         0.385914      0.177041      0.082998
Cr	      6.23660      4.31776      6.13331         0.126483     -0.136328      0.133263
Co	      2.03174      2.06077      0.08348         0.275541     -0.106769     -0.266685
Co	      4.10562      6.34337      6.18022        -0.081945      0.405545      0.876001
Cu	      4.08987      4.18195      0.06080        -0.034959     -0.194662     -0.032294
Cu	      4.14502      4.26049      3.93283         0.009972      0.042590      0.025108
Ni	      8.22667      8.53819      8.18546         0.074657     -0.242814      0.402009
O	      6.34608      8.49096      8.16937        -0.262996      0.035560     -0.052979
O	      6.31990      6.30054     10.26982        -0.027752     -0.049145     -0.089688
O	      1.97858      2.18954      1.96998         0.276574     -0.008783      0.686266
O	      4.13387      4.23894      1.93256        -0.082277      0.023988     -0.060839
O	      4.05925      2.25545      4.10327         0.030427     -0.135529     -0.130341
O	      6.14116      4.45272      4.11021         0.112742     -0.047216     -0.224003
O	      6.22132      2.35545      6.04403        -0.380165     -0.134781      0.063837
O	      8.28918      4.42907      6.06928         0.083228      0.246721      0.007624
O	      2.14291      4.31885      4.00713         0.020793     -0.163667     -0.053091
O	      4.08024      6.29862      4.21514         0.011643     -0.206172     -0.350696
O	      4.22848      4.29738      6.09797        -0.027342     -0.660497     -0.139841
O	      6.29344      6.36273      5.99740        -0.518416      0.037235      0.057136
O	      6.04880      4.31134      8.07562         0.164678      0.090295      0.028178
O	      8.26654      6.55841      8.20388        -0.021045     -0.261364      0.032208
O	      1.94208      6.26093      5.97412         0.374404     -0.012256      0.067097
O	      3.96209      8.19100      6.16089        -0.152035      0.693504     -0.095267
O	      4.12561      6.23502      8.03628         0.013033      0.063768     -0.336111
O	      8.26360      8.26123     10.31347         0.059860     -0.255018     -0.108052
