# total energy = -211.55338432 eV
 
CRYSTAL
PRIMVEC
0.043026 6.132129 6.228812 
6.163866 0.009705 6.262631 
4.104676 4.105712 0.011158 
PRIMCOORD
36 1
Li	      4.10529      2.00881      2.22499        -0.037527      0.041381      0.033719
Li	      4.22783      6.10866     10.42463        -0.070498      0.016771      0.041767
Li	      6.20592      8.14744     10.39089         0.063362      0.004289      0.063937
Li	      6.14999      2.12237      8.31536         0.037807     -0.064084     -0.128712
Li	      8.14591      4.06114      8.37985         0.000443     -0.049859     -0.099254
Li	      2.05953      2.08242      4.15750         0.143874     -0.099743     -0.049841
Li	      6.22797      4.12938      6.28007         0.066553     -0.080527      0.020002
Li	      8.22162      6.17040     10.27595        -0.105994      0.024658     -0.053876
Li	      6.21020      6.12468      8.37072         0.023601      0.017306      0.048196
Mn	      4.06431      4.10537      4.11224         0.065545     -0.285522      0.052303
Cr	     10.29105     10.22866     12.48677         0.010336      0.064412      0.429503
Cr	      6.17999      4.15949      2.17245        -0.154343      0.181710      0.243412
Cr	      8.19838      6.16186      6.28899         0.022137     -0.025492     -0.178776
Co	     10.28089      8.18552     10.40245         0.232594      0.476812     -0.660456
Co	      4.17299      6.13302      6.23703         0.741112      0.302547      0.046775
Ni	      8.14727      2.10161      6.23605        -0.154576      0.098078      0.002556
Ni	      6.17739      8.16087      6.22537        -0.043004      0.064929      0.061593
Ni	      8.27557      8.22333      8.40702        -0.007027     -0.082368      0.045488
O	      2.08920      1.89702      1.99737        -0.009634     -0.122064      0.201625
O	      4.19210      4.08061      2.15917         0.000284      0.001105     -0.064178
O	      4.09681      2.20068      4.25240        -0.061100     -0.052450     -0.148227
O	      6.03029      4.10757      4.02803         0.200799      0.060663     -0.061914
O	      6.10206      1.95728      6.22688        -0.001628      0.043352      0.079018
O	      8.27106      4.17293      6.31340        -0.012654     -0.013339     -0.077592
O	      2.12781      4.12143      4.13631         0.367744     -0.075394     -0.092170
O	      4.13245      6.13529      4.31872        -0.248369     -0.536642     -0.582113
O	      4.13410      4.14049      6.09378         0.012748     -0.761956     -0.077045
O	      6.11632      6.14707      6.25902         0.627433     -0.053011      0.196556
O	      6.08621      4.09441      8.50754         0.033434     -0.190750     -0.891612
O	      8.22255      6.31977      8.23274        -0.058989     -0.042923      0.076339
O	      2.12629      6.12212      6.36682        -0.778634     -0.029264     -0.035403
O	      4.12871      8.12278      6.11584         0.038975      0.683269      1.082604
O	      4.11381      6.08333      8.20368        -0.032328      0.077786      0.459848
O	      6.33679      8.33616      8.27384        -0.087716     -0.009127      0.085429
O	      6.22226      5.98347     10.53206         0.205945      0.591084     -0.044261
O	      8.38591      8.20604     10.44553        -1.030706     -0.175636     -0.025242
