# total energy = -214.07361739 eV
 
CRYSTAL
PRIMVEC
0.008881 6.290051 6.177321 
6.115970 0.027925 6.158234 
4.108440 4.210838 -0.011683 
PRIMCOORD
36 1
Li	      6.07228      6.29505     12.23941        -0.004112      0.024889      0.063791
Li	      4.16017      8.35969      8.22758        -0.051739      0.002369      0.067299
Li	      6.01557      2.06516      4.16348        -0.073953     -0.043884      0.041771
Li	      4.15937      4.18793      4.15758        -0.007950     -0.023208      0.012713
Li	      4.07752      2.13186      6.10604         0.027394      0.017327     -0.087770
Li	      6.12415      4.17159      6.15272        -0.005012     -0.029721     -0.041500
Li	      6.12230      4.30397     10.29879         0.072230     -0.062489     -0.026720
Li	      4.14449      6.33420      6.16471         0.022314     -0.018392     -0.026932
Li	      6.08285      6.28865      8.24967        -0.025216     -0.025230      0.019801
Mn	      6.11375      8.43328      6.14240         0.058486     -0.129467      0.046148
Cr	      2.11956      8.38220      6.11702        -0.001113      0.081608      0.094483
Cr	      0.03638      2.05994      2.04370         0.127681      0.002546      0.167952
Cr	      4.08215      4.21817      8.22724         0.046938      0.045601     -0.089150
Co	      6.15266     10.49184      8.21983        -0.090480     -0.012332      0.009447
Co	      8.17493      4.24926      8.17985         0.117386      0.027837     -0.067706
Co	      6.23450      6.29624      4.18392        -0.425706      0.150254     -0.407682
Cu	      8.07564      6.33367     10.29327        -0.212449      0.078447      0.035424
Ni	      8.18236      4.24233      4.10506         0.127829      0.164427      0.100299
O	      6.02207      6.35381     10.22370         0.528526     -0.001383     -0.008077
O	      2.03553      1.97863      1.97491         0.034460     -0.044603      0.518365
O	      4.16097      4.37806      2.06934         0.029062     -0.052701     -0.054810
O	      3.96234      2.11969      4.08293        -0.226282     -0.238789      0.243051
O	      6.19395      4.25094      3.96486        -0.159052      0.664015      0.027739
O	      6.21154      2.12630      6.30807         0.059180      0.004534     -0.103239
O	      8.16977      4.09979      6.14428        -0.004072     -0.096839      0.234117
O	      2.07065      4.28952      4.18949         0.044137     -0.675455      0.054721
O	      4.31234      6.33088      3.94391         0.174085     -0.048622      0.212364
O	      3.95261      4.22492      6.26065        -0.103131      0.021604     -0.044384
O	      6.13557      6.52023      6.15997         0.082283      0.004705     -0.798496
O	      6.11665      4.07087      8.20251        -0.108016      0.129285      0.006083
O	      8.27971      6.38455      8.30586        -0.077620     -0.171895     -0.155415
O	      2.05859      6.26591      6.21096         0.030981     -0.086978      0.074610
O	      4.16362      8.40480      6.19315         0.059065      0.001540     -0.038274
O	      3.97151      6.18764      8.28847        -0.069945      0.063238     -0.160189
O	      6.17121      8.54900      8.09575         0.005889      0.099559      0.050073
O	      8.15064      8.35066     10.28003        -0.002077      0.178204      0.030094
