# total energy = -213.33017014 eV
 
CRYSTAL
PRIMVEC
-0.002016 6.289089 6.219898 
6.086543 0.025501 6.191920 
4.078745 4.195344 -0.004234 
PRIMCOORD
36 1
Li	      4.07865      4.17643      0.07912         0.010200     -0.005132     -0.161920
Li	      6.03535      4.14649      2.14528         0.046013     -0.028486      0.052401
Li	      4.06925      2.18682      2.03344         0.013784     -0.040535      0.001791
Li	      6.11116      8.40956     10.26893         0.016292     -0.133274     -0.016316
Li	      4.07265      6.22758      2.09041         0.005326      0.026575     -0.012977
Li	      4.05903      4.23720      4.02855         0.023551      0.034743      0.017982
Li	      6.06609      4.19818     10.29385        -0.026894      0.165085      0.011308
Li	      4.06541      4.26479      8.32350        -0.010340      0.066952      0.040193
Li	      6.09630      6.26594      8.33797        -0.033259     -0.026988      0.141853
Mn	      4.10316      2.11547      6.23508        -0.038117      0.073447      0.062452
Cr	      2.00790      2.13243      4.06560        -0.074005     -0.073286      0.095678
Cr	      6.12179      4.17282      6.19143        -0.131739      0.017250     -0.102656
Cr	      4.03400      6.29811      6.27715         0.251901      0.079090      0.116529
Co	      4.23410      6.30310     10.20431        -1.434145      0.350936      0.541353
Co	      8.10289      6.32552     10.31716        -0.369249     -0.134393     -0.074469
Co	      6.03497      8.44112      6.32676        -0.006757      0.046846     -0.027163
Cu	      8.13606      8.41909     12.40313         0.034656     -0.143576     -0.036829
Cu	      2.07643      4.20168      2.09087        -0.105706      0.011651      0.112408
O	      6.26601      4.22460      8.15553        -0.025306     -0.076248     -0.040493
O	      6.10103      8.40958      8.07221        -0.010347      0.033140      0.027082
O	      2.02505      2.29043      2.08084         0.018756      0.028397     -0.018765
O	      3.93673      4.19807      2.07677         0.113860      0.020962      0.018098
O	      4.00085      2.08427      4.25442         0.131754     -0.588841     -0.123147
O	      6.20311      4.33148      4.13798         0.285830      0.026435     -0.101093
O	      5.99290      2.21570      6.16591        -0.017327     -0.008501      0.027091
O	      8.10629      4.17347      6.00535         0.314034     -0.133741     -0.868921
O	      2.00767      4.23970      4.40776         0.100458     -0.017948      0.072875
O	      4.02710      6.28272      4.25943         0.117153      0.025726      0.050652
O	      4.10791      4.24323      6.26285         0.019534      0.068775     -0.000408
O	      6.11428      6.25489      6.11335         0.083034     -0.063657     -0.005417
O	      8.13452      6.15220      8.30445         0.106925      0.018555     -0.076303
O	      2.04616      6.31513      6.08160         0.021104      0.061497      0.032130
O	      4.08177      8.27203      6.23824        -0.027291      0.014891      0.012376
O	      4.04250      6.27897      8.27373         0.059272     -0.001257      0.392357
O	      6.08750      6.31130     10.32221         0.444076     -0.013246     -0.000913
O	      8.11296      8.28104     10.41348         0.092970      0.318158     -0.158818
