# total energy = -214.78032244 eV
 
CRYSTAL
PRIMVEC
0.001872 6.201206 6.283990 
6.121760 0.020926 6.264466 
4.086046 4.125660 0.009555 
PRIMCOORD
36 1
Li	      2.06833      2.04457      0.17094         0.002345      0.030313      0.007872
Li	      2.04024      0.16733      2.18749         0.033622      0.001636      0.063180
Li	      3.99420      2.04978      2.10941         0.000355     -0.027143     -0.020057
Li	      8.03877      4.24097      4.19627        -0.019435      0.033256     -0.038875
Li	      6.08026      2.12054      4.17983        -0.003586      0.003839     -0.004075
Li	      0.19575      1.99964      2.05868        -0.000922     -0.027503      0.012669
Li	      2.07638      3.96500      2.08524         0.010835     -0.005943     -0.010727
Li	      2.10453      1.99813      3.96917         0.022110     -0.019858     -0.031347
Li	      6.09247      8.28530      6.31300        -0.013858      0.036955     -0.028126
Mn	      4.08249      4.15387      0.05981        -0.042059     -0.015099      0.085190
Cr	      4.09514      4.09243      4.11768         0.053393     -0.000182     -0.177284
Cr	      0.04898      4.11387      4.16989        -0.003870     -0.072854     -0.053670
Cr	      8.12862      8.27846      8.35970         0.082296      0.007966      0.023677
Co	      8.15795      6.20197      6.28295         0.052825     -0.046074     -0.153967
Co	      8.16998      6.22240     10.43464         0.056651      0.003548     -0.009961
Co	      6.12530      6.23054      8.36120        -0.085198      0.089340     -0.183802
Ni	      6.19275      4.07753      6.26485         0.078618     -0.073806      0.061465
Ni	      4.04391      6.27978      6.29902        -0.058036      0.013024      0.066281
O	      2.06619      2.05778      2.07836        -0.020572      0.000026      0.009038
O	      4.11646      4.09567      2.26639         0.003868      0.017628      0.153021
O	      4.03645      2.16895      4.36987        -0.018945      0.034520      0.062740
O	      5.98002      4.14305      4.26223        -0.066765     -0.003461     -0.049154
O	      5.99284      2.01536      6.28509        -0.096399     -0.126791      0.058281
O	      8.23499      4.28631      6.25346         0.133763      0.092565     -0.002533
O	      2.09833      4.26931      4.20457         0.002650      0.046241     -0.022816
O	      3.97878      6.20563      4.26742        -0.049813     -0.001649     -0.101539
O	      4.10803      4.07655      6.28643        -0.119139     -0.094649     -0.048554
O	      6.17891      6.14109      6.46247         0.220744      0.093565      0.228171
O	      6.08202      4.25770      8.39174        -0.002892      0.116260      0.053212
O	      8.05298      6.26529      8.37122         0.057738      0.065730      0.018778
O	      1.96245      6.24180      6.09251        -0.038192      0.002664     -0.091474
O	      4.08063      8.38016      6.15156         0.043950     -0.016038     -0.038431
O	      4.19938      6.14829      8.30904        -0.051699      0.011770      0.229013
O	      6.16710      8.08652      8.36021        -0.064579     -0.131020      0.118398
O	      6.23992      6.14149     10.29945        -0.023586      0.012521     -0.121395
O	      8.25657      8.17455     10.33631        -0.076216     -0.051297     -0.063198
