# total energy = -216.65912894 eV
 
CRYSTAL
PRIMVEC
-0.015146 5.969701 6.204566 
6.551574 -0.005330 6.196281 
4.360487 3.965917 0.004023 
PRIMCOORD
36 1
Li	      4.36792      9.88643      6.24689        -0.020162     -0.066960      0.136225
Li	      6.39005      4.01937      2.24294        -0.109383     -0.025319      0.013813
Li	      8.50855      4.05148      4.19777         0.015235      0.062564     -0.043535
Li	      2.32044      3.95660      2.06429         0.138319      0.023584     -0.031931
Li	      2.35886      1.91970      4.15200         0.078742      0.032894     -0.028155
Li	      4.47281      3.98466      4.21749         0.043304     -0.011337     -0.048736
Li	      8.58450      5.91222      6.17480        -0.012297      0.020837      0.014061
Li	      6.51029      4.01774      6.14750        -0.020648      0.048494     -0.001197
Li	      4.45135      5.94663      6.21204        -0.007422      0.026863      0.064039
Mn	      4.36062      7.90583      4.11171         0.007881      0.045043     -0.031046
Cr	      8.75911      2.04739      6.21937         0.067959      0.318843      0.078620
Cr	      6.48862      2.03621      4.20951        -0.182236      0.014378     -0.111037
Cr	      4.32870      4.03901      8.25254        -0.125752      0.139541     -0.096212
Co	      4.29917      2.03650      2.17345         0.091298     -0.683415      0.126859
Co	      8.67107      5.91494     10.27499        -0.046691      0.027770     -0.077161
Co	      2.33941      4.02063      6.14129        -0.035083     -0.096516     -0.094805
Co	      6.55327      5.99487      8.23406        -0.085647      0.023097      0.016077
Cu	      4.36338      5.85845      2.01134        -0.139028     -0.135769      0.117563
O	      8.75649      3.83286      6.20821        -0.042927     -0.202700     -0.067337
O	      2.35281      1.93956      1.95156         0.650168      0.093000      0.133318
O	      4.39644      3.86489      2.03590         0.008177      0.194558     -0.128319
O	      4.50769      1.98060      4.13010         0.012603      0.038203     -0.568585
O	      6.53254      3.94539      4.19339         0.050907     -0.043920      0.068961
O	      6.82205      1.90692      6.23221         0.008903      0.015406     -0.056309
O	      2.12049      4.00116      4.17961        -0.051863      0.029692      0.093523
O	      4.06690      6.00419      3.95540        -0.053725      0.024122      0.023709
O	      4.29368      3.99646      6.32661         0.112081     -0.019183      0.052808
O	      6.52904      6.15702      6.31938         0.001839     -0.038455      0.034719
O	      6.34696      4.01265      8.32105        -0.025044      0.030046      0.019979
O	      8.49733      5.98901      8.33617         0.013215      0.093872      0.045242
O	      2.16245      5.88356      5.99787        -0.025259      0.068543     -0.021810
O	      4.13039      7.89683      6.06079        -0.074464     -0.050769      0.169671
O	      4.61086      6.06153      8.27700        -0.094580      0.118680      0.126914
O	      6.62596      7.93736      8.31855        -0.168423      0.027018      0.079348
O	      6.71590      5.91242     10.21556        -0.004337     -0.036412      0.005578
O	      8.56782      7.88887     10.34496         0.024340     -0.106292     -0.014852
