# total energy = -217.72700741 eV
 
CRYSTAL
PRIMVEC
0.006407 6.248311 6.173460 
6.132122 0.002671 6.177238 
4.085692 4.165781 0.004066 
PRIMCOORD
36 1
Li	      2.14542      6.15508      8.22529         0.010772     -0.068755     -0.131032
Li	      4.11908      8.31173      8.24201         0.015576     -0.000091     -0.011685
Li	      6.12149      8.33278     10.24653        -0.059161     -0.016809      0.000557
Li	      4.09574      4.15340      4.10490        -0.037249      0.009105      0.025136
Li	      4.08484      2.14118      6.13478        -0.098347      0.050200     -0.015653
Li	      4.07263      8.31580      4.18014         0.119914     -0.029826      0.015639
Li	      2.09031      6.28875      4.12377         0.008213     -0.038022      0.129694
Li	      4.05983      6.24453      6.13188        -0.014155     -0.044001     -0.056104
Li	      8.11473      8.42027      8.31488        -0.034371      0.004859     -0.107939
Mn	      6.04949      4.16813      6.14516        -0.119365      0.307166      0.146080
Cr	      2.11219      8.29970      6.12618         0.192367     -0.540404      0.111705
Cr	      4.04684      6.23870      2.11045         0.041449      0.043524      0.174815
Cr	      6.10837      6.26690      8.28379         0.059435      0.641671     -0.270226
Co	      8.16800     10.40694     10.28579        -0.033553      0.128576     -0.010237
Co	      2.05933      4.17779      2.09678        -0.093494      0.063159      0.195853
Co	      2.07787      2.09711      4.12252        -0.201098     -0.127583      0.125253
Co	      2.05262      4.26036      6.15353         0.123937     -0.684309     -0.276174
Ni	      6.15226      6.25341     12.29756         0.115490      0.032267      0.121124
O	      1.97717      2.20621      2.03283         0.056195      0.178728     -0.176816
O	      3.96024      4.26468      2.00188        -0.007166      0.041534      0.094880
O	      3.93927      1.93534      4.11631        -0.054316     -0.133439     -0.077920
O	      6.20683      4.14556      4.23717        -0.000676      0.582674     -0.064576
O	      6.17792      2.18485      6.23736         0.059332     -0.068217      0.031051
O	      8.10277      4.09346      6.22937        -0.023468     -0.027036     -0.190488
O	      2.08211      4.12034      4.12259        -0.001773     -0.826964     -0.221838
O	      4.24465      6.23311      4.04583         0.293156      0.163949     -0.152201
O	      4.18110      4.14991      6.17701         0.069131     -0.067268     -0.017005
O	      6.11051      6.13890      6.22513         0.014119     -0.472095      0.175922
O	      6.22084      4.16811      8.14373        -0.051050      0.006635     -0.038314
O	      8.16305      6.08980      8.28877         0.022663      0.014954      0.029021
O	      2.03269      6.25838      6.14822         0.031108      1.047184      0.016623
O	      4.11733      8.38409      6.16320        -0.249655      0.042345      0.074347
O	      4.15217      6.23892      8.39396         0.012093     -0.017127      0.114403
O	      6.16375      8.24699      8.03628        -0.013592     -0.332122      0.412228
O	      5.99838      6.30619     10.26827        -0.105293      0.059598     -0.262373
O	      8.18628      8.46105     10.35581        -0.047169      0.075940      0.086251
