# total energy = -92.79312404 eV
 
CRYSTAL
PRIMVEC
0.000319 2.065412 2.064205 
6.193489 6.269620 -4.200708 
-4.144088 2.103380 -2.102810 
PRIMCOORD
16 1
Li	     -1.90154      4.16924     -2.10748         0.003945      0.019024     -0.019125
Li	     -0.05267      6.22039     -2.08976        -0.018065     -0.000609      0.004308
Li	      1.79464      6.14882     -4.08235        -0.014954     -0.000016     -0.000555
Li	      0.03008      4.29882     -0.16568         0.014384     -0.003304     -0.000443
Mn	     -4.07934      4.18056     -0.05375         0.070506      0.025107     -0.031117
Mn	      2.00049      4.16211     -2.09517        -0.040729     -0.025605      0.032381
Ni	     -2.04214      2.09307     -0.03094         0.026420     -0.002493      0.000693
Ni	      4.08951      6.22975     -2.09977         0.024809      0.032187     -0.021786
O	      4.29668      6.28241     -4.21569         0.076045     -0.011218      0.009320
O	     -0.14782      6.32706     -4.26052        -0.057983     -0.117428      0.118851
O	      2.06873      8.47521     -4.34424        -0.000789      0.021587     -0.018666
O	     -2.17500      4.13911     -0.01337        -0.077400      0.103516     -0.098358
O	      0.13452      4.17181     -2.10397         0.045384     -0.003217      0.000242
O	      2.04630      6.16426     -2.03241        -0.114935     -0.008756      0.002213
O	      0.03320      1.94595      0.11433         0.086874     -0.048178      0.050858
O	      2.06005      4.29330     -0.15987        -0.023512      0.019405     -0.028816
