# total energy = -103.69674061 eV
 
CRYSTAL
PRIMVEC
2.059364 4.181480 2.056675 
4.175264 -2.106131 -2.082534 
0.002345 4.195627 -4.143623 
PRIMCOORD
16 1
Li	      0.05238      4.17111     -4.15988         0.022438     -0.007527     -0.018678
Li	      2.10189      2.10773      0.03214         0.006582     -0.001817      0.008735
Li	      4.09694      4.08517      0.00570        -0.012292     -0.024447      0.024515
Li	      4.16172      6.30347     -2.14236        -0.006042      0.001764     -0.008036
Ti	      0.10890      2.06916     -2.06933         0.196284     -0.155489     -0.030098
Ti	      4.06357      4.29121     -4.22243        -0.248858      0.254325     -0.025364
Ni	      4.12250      2.08860     -2.09393        -0.051082     -0.014574      0.078790
Ni	      2.08935      4.20274     -2.08227         0.053623     -0.000385     -0.012790
O	      1.98756      2.13047     -2.06507        -0.289657     -0.091889     -0.005980
O	      4.20839      4.15745     -2.19462         0.116134      0.117001     -0.046340
O	      2.20793      4.14317     -4.13422         0.283456      0.022918     -0.131903
O	      4.12297      1.95725     -0.05491         0.001468     -0.284644      0.106765
O	      4.16069     -0.00153     -2.08015         0.005842     -0.097190      0.011494
O	      2.05289      4.33297     -0.00713         0.084533      0.164193      0.083084
O	      4.19513      2.04407     -4.14197        -0.112288     -0.003624     -0.120568
O	      1.97871      6.26773     -1.97475        -0.050141      0.121386      0.086375
