# total energy = -207.66457211 eV
 
CRYSTAL
PRIMVEC
0.014530 6.086257 6.346707 
6.155688 0.011318 6.349805 
4.105529 4.061235 0.005712 
PRIMCOORD
36 1
Li	      6.17999      6.10837     12.69170         0.047369     -0.020839      0.025867
Li	      4.08667      2.05143      2.15129        -0.024143      0.032685      0.014922
Li	      6.18215      8.10308     10.57593         0.024810     -0.013198     -0.009879
Li	      2.07646      4.02526      2.14551         0.015320     -0.008569      0.012573
Li	      6.15645      6.08461      4.23617        -0.017023     -0.024576      0.018942
Li	      6.14385      4.08751      6.33027        -0.040979      0.047198     -0.025228
Li	      8.19986      6.11628     10.57301        -0.010937      0.002267     -0.000691
Li	      4.13070      6.07560      6.35230        -0.020943     -0.011200      0.025403
Li	      8.23093      8.13624      8.50542         0.008870     -0.013905      0.035318
Mn	      0.02485      4.05067      4.22196         0.076838     -0.006063      0.059491
Cr	      2.12081      6.08298      8.49565        -0.015167     -0.063431     -0.030104
Cr	      8.25697      6.03935      6.39285         0.038586     -0.015166     -0.065742
Cr	      6.14681      8.13366      6.34662        -0.046739      0.045877     -0.035241
Cu	     10.25087      6.11558      8.48159        -0.032075      0.011091      0.045608
Ni	      8.21760      8.12931     12.69019         0.019145     -0.006154      0.006192
Ni	      4.11311      0.03540      4.23411        -0.034691     -0.009458      0.028595
Ni	      4.10293      4.06223      4.20965         0.000380     -0.019223      0.035297
Ni	      6.15080      6.09759      8.47400         0.017881      0.052841     -0.022625
O	      8.24586      6.10106      8.30959        -0.079365      0.004332      0.029183
O	      2.00211      1.92039      2.02620         0.133836     -0.068806      0.108816
O	      4.19802      4.09244      2.20670         0.005662     -0.115474     -0.070575
O	      4.11854      1.99523      4.38130         0.020936     -0.064436     -0.009837
O	      6.17510      4.04942      4.06957         0.030067     -0.007577     -0.018971
O	      6.09192      2.06681      6.46240        -0.207433      0.014595     -0.111924
O	      8.18206      4.15986      6.26648        -0.003702      0.124914      0.181981
O	      1.97598      4.06312      4.32750        -0.093062     -0.018824     -0.064481
O	      4.07833      6.16212      4.14629        -0.010825      0.111713      0.091165
O	      4.03134      3.93700      6.22291         0.095077     -0.035661      0.093539
O	      6.24724      6.13162      6.45277         0.077376     -0.084718     -0.127760
O	      6.17415      4.05315      8.64045         0.010278      0.022853      0.049486
O	      2.08299      6.05870      6.50222        -0.002260     -0.027234     -0.050709
O	      4.14757      8.11301      6.17096         0.016851      0.017423     -0.065092
O	      4.03531      6.11394      8.54771        -0.032361      0.032354     -0.160097
O	      6.13200      8.21033      8.35946        -0.012062      0.159268      0.004704
O	      6.16293      6.00449     10.48828         0.077893      0.022767      0.119861
O	      8.33316      8.21894     10.65039        -0.033409     -0.067668     -0.117989
