# total energy = -206.57249329 eV
 
CRYSTAL
PRIMVEC
-0.004263 6.206216 6.223565 
6.225988 -0.000081 6.219414 
4.128561 4.112664 0.021974 
PRIMCOORD
36 1
Li	      0.04211      6.19435      6.21014        -0.011806      0.021242     -0.036563
Li	      6.23679      8.24167     10.36874         0.022755     -0.052517      0.024318
Li	      2.06021      4.14511      2.18598        -0.020825      0.015006      0.112707
Li	      2.04353      2.13425      4.15164        -0.047714      0.066644      0.009576
Li	      4.07184      4.16776      4.16692        -0.115154      0.071638      0.048714
Li	      0.02831      4.12776      4.15747         0.018767     -0.007956     -0.024910
Li	      2.05405      6.17739      4.19711         0.021678     -0.020134      0.013803
Li	      4.08345      6.21016      6.15815        -0.040187      0.001834     -0.116067
Li	      8.26592      8.22787      8.32612         0.066703     -0.075000     -0.007538
Mn	      4.10935      6.17364      2.17048        -0.005974      0.117211      0.198944
Cr	      4.11818      2.11552      2.09283        -0.165942      0.076258      0.048177
Cr	      8.30201     10.26875     10.37635         0.292134     -0.113404      0.481497
Cr	      6.16563      4.13426      6.20944         0.237129     -0.012606      0.134265
Cu	      4.16298      2.07815      6.20050         0.052034     -0.071958      0.008140
Cu	      2.03700      4.20455      6.14440         0.055787     -0.017004     -0.169097
Cu	      6.25187      6.18300      8.35241         0.007699      0.019972      0.088127
Ni	      2.08547      8.22031      6.19915        -0.008484      0.045023     -0.046045
Ni	      6.19805      4.09957      2.11025        -0.111562      0.104003      0.028617
O	      8.42312      6.16122      8.23508        -0.006156     -0.036555      0.010844
O	      2.07914      6.19728      6.28202         0.013009     -0.055270     -0.063631
O	      6.09178      6.21616     10.26628        -0.349929      0.015772      0.080740
O	      2.03615      2.03174      1.99023        -0.025806      0.050882      0.141140
O	      4.17759      4.15588      2.12818        -0.055541      0.061282      0.007107
O	      4.15095      1.91507      4.12539         0.008736     -0.053290     -0.095315
O	      6.35810      4.11476      4.20955         0.033811      0.023991     -0.107205
O	      6.20697      2.11467      6.32797         0.061675     -0.032964      0.006452
O	      8.21931      4.12387      6.14502        -0.016134      0.001845     -0.161084
O	      2.04609      4.13763      4.25320        -0.001276     -0.019253      0.003081
O	      4.13028      6.20959      3.99675         0.033851     -0.047137     -0.113728
O	      4.20346      4.05306      6.20041        -0.106403      0.102608      0.013634
O	      6.29550      6.12668      6.39146        -0.111838     -0.023398     -0.191384
O	      6.23076      4.00835      8.20031         0.004080     -0.100315     -0.005955
O	      4.12945      8.26289      6.35197         0.036520      0.004948     -0.011906
O	      4.09334      6.28958      8.38620         0.160474     -0.047953     -0.197484
O	      6.10202      8.27672      8.21235         0.080392     -0.194115      0.129089
O	      8.26791      8.38929     10.44303        -0.006505      0.180669     -0.241059
