# total energy = -206.30393180 eV
 
CRYSTAL
PRIMVEC
-0.013609 6.151820 6.343072 
6.173086 0.005484 6.323862 
4.101880 4.075057 0.017525 
PRIMCOORD
36 1
Li	      4.07742     10.17595      6.38429        -0.017627      0.039145      0.040781
Li	      2.10440      8.18579      6.36067        -0.009926     -0.031009      0.031825
Li	      2.08469      0.02662      2.12902        -0.010599     -0.015854     -0.033156
Li	      4.06057      2.04611      2.11379        -0.026362      0.041430     -0.030068
Li	      2.07509      4.06349      2.15925         0.020819      0.005813      0.010772
Li	      4.08091      4.10987      4.14555         0.004220     -0.003993     -0.023545
Li	     10.24226      8.19351     10.56072         0.032811     -0.036397      0.005822
Li	      4.12662      4.16475      8.51068        -0.030646      0.008728     -0.015945
Li	      6.09035      6.13674      8.55053         0.017732      0.018073     -0.010980
Mn	      6.16703      4.07483      6.39593        -0.041685     -0.021511     -0.051418
Cr	      4.14715      6.03670      2.16219         0.095055     -0.077989     -0.046301
Cr	      8.20864      6.12973      6.38754        -0.010435      0.033293      0.054296
Cr	      6.01687      8.21479      6.38650        -0.138646     -0.010492     -0.147876
Cu	      4.14387      6.10717     10.49565         0.100278     -0.035907      0.130045
Cu	      6.16048      8.18242     10.44864        -0.122914      0.045379     -0.061133
Cu	      8.20409      6.16463     10.52551        -0.121302     -0.040987     -0.066799
Cu	      4.06088      6.12674      6.44866        -0.117421      0.058186      0.242464
Ni	      2.05105      2.06405      4.15848         0.009496      0.061728      0.076321
O	      2.09260      6.07350      6.19404        -0.164436      0.008972      0.082714
O	      4.09727      6.17341      8.55600         0.004962      0.011446     -0.170727
O	      6.14735      6.20789     10.55715        -0.002841     -0.052676     -0.004453
O	      8.13231      8.19692     10.56692         0.089020      0.035709     -0.077855
O	      1.92407      2.07256      2.16499         0.019955     -0.012652     -0.171554
O	      4.10409      4.21692      2.09407         0.036120     -0.018760      0.003200
O	      4.15484      1.98271      4.34547         0.084122      0.142897      0.044167
O	      6.23025      4.04616      4.39122        -0.168360     -0.120860      0.113076
O	      6.09056      2.16655      6.45700         0.090711     -0.004018      0.056034
O	      8.07907      4.15358      6.32775         0.054010     -0.100185     -0.070976
O	      2.07685      4.10106      4.43064         0.000797     -0.039489      0.033710
O	      4.09198      6.15034      4.09867        -0.003029      0.051367      0.073952
O	      4.17876      4.09956      6.30969         0.082161     -0.149313      0.009904
O	      6.15745      6.08204      6.29133         0.201109     -0.058358      0.051572
O	      6.17864      4.01298      8.27353        -0.011588      0.065597     -0.011017
O	      8.35096      6.13485      8.44299        -0.030556      0.052884     -0.103286
O	      4.17418      8.09017      6.35797        -0.024279      0.164335     -0.049153
O	      6.20507      8.20129      8.16525         0.109276     -0.014529      0.085584
