# total energy = -210.22178966 eV
 
CRYSTAL
PRIMVEC
-0.005207 6.233864 6.251180 
6.203840 -0.027638 6.273702 
4.123508 4.158486 -0.006046 
PRIMCOORD
36 1
Li	      4.14779     10.32788      6.25690         0.025056     -0.047353      0.003360
Li	      2.14548      8.25318      6.21139         0.072092     -0.044915     -0.005852
Li	      2.15668      6.22625      8.30959        -0.034571     -0.019933     -0.043922
Li	      4.10917      8.23505      8.30586        -0.014023      0.091185     -0.084402
Li	      2.02432      2.15025      4.12810        -0.046382      0.063275      0.001953
Li	      4.12778      8.28673      4.20749         0.067997     -0.026730      0.096179
Li	      2.03799      6.23937      4.20843        -0.033342     -0.033780      0.125275
Li	      4.08856      6.27753      6.31594        -0.026252      0.055734      0.089817
Li	      4.08947      4.25009      8.41705         0.001284     -0.086342      0.014561
Mn	      6.23396      8.27252     10.36005         0.056407     -0.022464      0.125872
Cr	      4.17094      6.20792      2.18125         0.160211     -0.096912      0.011166
Cr	      4.13407      2.05667      6.23470         0.047619     -0.132939      0.097767
Cr	      1.95700      4.27135      6.24669        -0.218288      0.234628      0.046422
Fe	      6.16145      4.18879      6.26321         0.064338     -0.027687     -0.091160
Cu	      2.08761      4.12526      2.09613         0.064069     -0.125350      0.020292
Ni	      4.13339      6.20213     10.38174        -0.028712     -0.420704     -0.576008
Ni	      4.08261      4.16230      4.14496        -0.035447      0.047240      0.023430
Ni	      6.16252      6.21826      8.38373         0.105972     -0.043060      0.044336
O	      4.16009      6.21924      8.49459        -0.033610      0.141226     -0.250713
O	      1.90145      2.13227      2.01842        -0.126946      0.035197      0.050757
O	      4.05077      4.25465      2.11408        -0.016922      0.032214     -0.188550
O	      4.25521      2.05060      4.22463        -0.070451     -0.027141     -0.035615
O	      6.17048      4.01299      4.23182        -0.052040      0.039871     -0.079269
O	      6.13743      2.12811      6.23483        -0.024497     -0.044352      0.000553
O	      8.18273      4.21557      6.06280        -0.058245      0.126567      0.587866
O	      2.07838      4.13111      4.35594        -0.152627      0.006047     -0.070787
O	      4.09675      6.22073      3.98104         0.023499      0.164812     -0.143502
O	      4.10438      4.06925      6.25073        -0.073896      0.064620      0.173695
O	      6.24226      6.22535      6.29743         0.045230      0.074038     -0.074415
O	      6.27793      4.08123      8.27304        -0.069882      0.006875      0.058158
O	      8.37620      6.11556      8.23143        -0.003134      0.074572     -0.111337
O	      2.11396      6.05477      6.29998        -0.018099     -0.173671     -0.004528
O	      4.27654      8.27585      6.25511         0.124666      0.002765      0.084493
O	      6.21046      8.25797      8.43452         0.013401      0.162004     -0.019749
O	      6.18462      6.36896     10.41793         0.179339     -0.001572      0.062822
O	      8.11570      8.34588     10.44903         0.086187     -0.047968      0.061038
