# total energy = -210.85258163 eV
 
CRYSTAL
PRIMVEC
0.029629 6.203874 6.280116 
6.244428 0.018078 6.291776 
4.160110 4.140760 0.014850 
PRIMCOORD
36 1
Li	      4.27913     10.28562      6.38117        -0.007461     -0.005730      0.144700
Li	      6.23475     10.25648      8.31424         0.005140     -0.034414      0.009748
Li	      4.33692      8.33025      8.33769         0.012186      0.007578     -0.021414
Li	      6.25825      8.33985     10.32285         0.017102      0.099846     -0.049678
Li	      2.07928      4.15423      2.15930         0.046544     -0.006697      0.022311
Li	      4.15730      4.14936      4.21242        -0.048062     -0.025171     -0.025159
Li	      2.08477      4.25046      6.36484         0.009079     -0.002776      0.000821
Li	      4.11074      6.16535      6.34841         0.003741     -0.015632      0.040811
Li	      4.10002      4.18415      8.29722        -0.024047      0.031279     -0.046659
Mn	      4.22557      6.20858     10.45207        -0.394916      0.079791     -0.285585
Cr	      2.16857      8.24341      6.33260        -0.085082     -0.103697     -0.034098
Cr	      4.16233      6.14864      2.11247        -0.080689     -0.248896      0.124795
Cr	      2.08919      2.09298      4.18547         0.065247      0.143610     -0.040722
Fe	      4.17709      2.17577      6.31174         0.072994     -0.092178     -0.005672
Cu	      4.19101      8.26637      4.24223        -0.013614     -0.028917     -0.076321
Cu	      6.23791      6.29494      8.37091        -0.059069      0.163966     -0.223324
Ni	      6.23468      4.14182      6.29001        -0.036441     -0.008596     -0.043416
Ni	      2.08846      6.15032      4.23902         0.045378      0.038215      0.004816
O	      4.07708      8.28028      6.29049         0.078214      0.021886     -0.171062
O	      6.27635      8.24247      8.38625         0.027669     -0.084504      0.022432
O	      1.93053      2.08444      2.10991        -0.056297      0.001029      0.072376
O	      4.12729      4.32880      2.17197         0.002211      0.141622     -0.048123
O	      4.11048      1.95817      4.25512         0.031291     -0.072105     -0.030043
O	      6.42954      4.21004      4.19334         0.067184      0.027821     -0.015822
O	      6.26463      2.08627      6.39827        -0.015826     -0.140636      0.024181
O	      8.32519      4.14207      6.15753         0.129940      0.004593     -0.048005
O	      1.97335      4.08969      4.20026         0.259078     -0.163099     -0.004103
O	      4.21298      6.24375      4.10988        -0.007823      0.070817     -0.030267
O	      4.22790      4.06537      6.21112        -0.086043      0.072142     -0.034454
O	      6.31968      6.16646      6.25501         0.038685      0.053751      0.041917
O	      6.22386      4.01625      8.35213         0.035320      0.002363      0.324179
O	      8.34415      6.20932      8.38713         0.453137     -0.060709     -0.017329
O	      2.10926      6.29209      6.22812        -0.042387      0.129463      0.062310
O	      4.30472      6.22356      8.54643        -0.311667     -0.066457      0.235725
O	      6.20219      6.16774     10.39805         0.036772      0.002378      0.017530
O	      8.41540      8.37047     10.59331        -0.167488      0.068066      0.102604
