# total energy = -210.37983688 eV
 
CRYSTAL
PRIMVEC
0.052999 6.136258 6.432273 
6.196994 0.022974 6.461868 
4.130843 4.110168 0.015814 
PRIMCOORD
36 1
Li	      8.27118      2.14491      6.41236         0.014617     -0.072284     -0.050252
Li	      2.22594      6.12378      8.54178        -0.013784     -0.089930     -0.019143
Li	      4.20561      6.04833     10.65192        -0.028426      0.056757     -0.098489
Li	      8.24057      4.12331      8.53067        -0.013420      0.008490      0.118095
Li	      6.26374      4.14982      6.51272        -0.034598     -0.012383     -0.029028
Li	      6.13359      4.18553     10.68730         0.065510      0.019844     -0.029217
Li	      4.17933      6.12156      6.64678        -0.044882     -0.010011      0.000195
Li	      4.19725      4.18688      8.62950        -0.113085     -0.038905      0.021905
Li	      6.11836      6.10869      8.51918         0.078938      0.024629     -0.053680
Mn	      4.10696      4.13135      0.08038         0.250583     -0.303429     -0.040520
Cr	      6.20033      2.19293      8.61652         0.160128      0.174432      0.160038
Cr	      2.09434      2.03403      4.27583         0.075541      0.088938      0.144112
Cr	      8.27830      6.21072     10.79734         0.091563     -0.248351      0.107648
Fe	      4.19151      4.07558      4.33734        -0.078725     -0.067200      0.016390
Cu	      4.19526      8.11519      8.52189        -0.191653     -0.078988      0.123185
Cu	      6.29486      8.23301     10.67847        -0.100591      0.038309     -0.324037
Cu	      8.24968      6.14972      6.52522         0.108549      0.021746     -0.077728
Cu	      6.22832      8.18839      6.48605        -0.156172      0.138740      0.157709
O	      4.20384      8.32961      6.53075        -0.333413      0.344787     -0.420877
O	      4.18368      6.19919      8.57407        -0.033720     -0.061369     -0.033282
O	      6.16287      8.15551      8.46670         0.438216      0.031072      0.314787
O	      8.22787      8.15900     10.79254         0.167685      0.096558      0.049306
O	      1.95496      2.02650      2.27723        -0.255214      0.002448     -0.025024
O	      4.14653      4.16276      2.07095        -0.017393     -0.009824     -0.047793
O	      4.13856      2.09999      4.07732        -0.076461     -0.041906      0.333601
O	      6.13821      4.11839      4.35996         0.150178      0.065174     -0.048290
O	      6.14741      1.99170      6.64875        -0.034878      0.008048      0.063024
O	      8.42204      4.19268      6.49071        -0.120768      0.187951      0.052477
O	      2.16123      4.08217      4.34383        -0.008814      0.083815     -0.214949
O	      4.17894      6.11990      4.22621        -0.089660      0.036185     -0.042909
O	      4.08136      4.02324      6.34393         0.350522     -0.266907      0.009023
O	      6.28583      6.19741      6.31297         0.095915     -0.429150     -0.143114
O	      6.23226      4.00082      8.58853        -0.006030     -0.015495      0.007160
O	      8.45774      6.14623      8.82052        -0.083078     -0.021221      0.001072
O	      1.99893      6.09668      6.36537        -0.095260      0.411712     -0.102615
O	      6.30839      6.24065     10.96990        -0.117920     -0.072281      0.121221
