# total energy = -209.54331492 eV
 
CRYSTAL
PRIMVEC
-0.000962 6.260413 6.135829 
6.216362 0.000354 6.134481 
4.150167 4.178625 -0.005608 
PRIMCOORD
36 1
Li	      0.00600      6.26149      6.13410        -0.016108      0.009897      0.155365
Li	      6.21731      4.16884      2.12942        -0.122707     -0.027688      0.054962
Li	      8.20340      4.18569      4.05545        -0.188218      0.005292      0.132682
Li	      6.24236      2.16293      4.07363        -0.011638      0.178330      0.057052
Li	      4.15651      6.25013      2.05034         0.115547     -0.059936     -0.020349
Li	      6.17727      6.16414      4.08297         0.008628     -0.073570     -0.117172
Li	      4.23154      4.20824      4.06827         0.022933     -0.030132     -0.034789
Li	      4.15139      6.23450      6.13259        -0.129776     -0.027378     -0.085130
Li	      4.15200      4.24416      8.16849         0.003208      0.083213      0.003235
Mn	      2.04751      2.07136      0.01886        -0.037589     -0.031757     -0.082418
Cr	      4.15317      2.08197      2.15841        -0.060718      1.104830      0.163272
Cr	      4.18751      2.07969      6.08127         0.432781     -0.058472     -0.363380
Cr	      2.08415      4.19920      6.13687         0.035520      0.335684     -0.125706
Fe	      8.32349      6.26155     10.18241         0.539209      0.124843      0.245182
Ni	      6.20501      4.16324     10.19744        -0.083473     -0.180909      0.059460
Ni	      2.08477      4.15173      2.04801         0.168771     -0.164672      0.039918
Ni	      6.17902      4.19684      6.10704         0.014444     -0.151028     -0.114435
Ni	      6.20622      6.28631      8.17825        -0.364704      0.019289      0.141809
O	      6.19904      4.20102      4.22628        -0.020878      0.013977     -0.164333
O	      2.13141      2.07725      1.94162         0.039903     -0.216902      0.052921
O	      4.09260      3.95847      2.04665         0.273562     -0.044484     -0.037892
O	      4.14775      2.06866      4.04606        -0.022108     -0.086145     -0.126403
O	      6.19847      2.15929      6.15105        -0.045709     -0.147916      0.050431
O	      8.24485      4.22606      6.12650         0.004016      0.041701     -0.159253
O	      2.03163      4.24655      4.12544         0.043958     -0.180170      0.164666
O	      3.95766      6.29943      4.03835         0.454430     -0.036210     -0.041391
O	      4.10465      4.06344      6.15176        -0.116913      0.081612      0.042906
O	      6.31734      6.32309      6.12211        -0.165425     -0.000762      0.614612
O	      6.25618      4.25548      8.09148        -0.291148      0.292925      0.101879
O	      8.26230      6.22142      8.12771        -0.412161      0.250373     -0.011106
O	      2.07622      6.20519      6.06465        -0.034074     -0.079116      0.107089
O	      4.17133      8.33336      6.23287         0.026661     -0.078922      0.001788
O	      4.20199      6.44287      8.20208         0.701697     -0.763901     -0.108468
O	      6.14524      8.35238      8.12585         0.047493     -0.308638      0.083759
O	      6.42338      6.21441     10.18520        -0.733670      0.108263     -0.687956
O	      8.32002      8.27820     10.35185        -0.075742      0.098478      0.007194
