# total energy = -206.82337326 eV
 
CRYSTAL
PRIMVEC
0.053131 6.230039 6.275556 
6.252639 0.042180 6.286510 
4.163638 4.155877 0.032761 
PRIMCOORD
36 1
Li	      0.13728      6.25850      6.25973         0.087432     -0.002779     -0.027225
Li	      2.10329      8.22913      6.27266        -0.025795     -0.045505     -0.016938
Li	      6.33147      8.30560     10.53273         0.028010     -0.011555      0.049875
Li	     10.38986      6.25054      8.41123        -0.017060      0.009388      0.024494
Li	      8.36335      4.26413      8.41770         0.005625      0.028803      0.044235
Li	      4.14955      4.20546      4.20048        -0.012824      0.051458     -0.000169
Li	      4.19714      8.29320      4.24851        -0.003405     -0.030793      0.044169
Li	      2.14421      6.23119      4.22223         0.043568     -0.004308      0.021495
Li	      4.10399      6.24032      6.23805        -0.064442      0.002794     -0.114503
Mn	      6.25961      4.15079      6.30964        -0.016696      0.000559     -0.010549
Cr	      4.15243      2.17392      2.03803        -0.037833      0.077254     -0.037925
Cr	      8.46629     10.33739     10.52326         0.037902     -0.071421      0.017759
Cr	      6.15434      6.32828      4.19704        -0.065580      0.066985     -0.005055
Ni	      2.12079      6.26317      8.29933         0.009693      0.009227      0.065224
Ni	      8.39604      6.24748      6.36043         0.016426     -0.026855     -0.083747
Ni	      2.12903      4.22310      6.25056        -0.020137     -0.066832     -0.060341
Ni	      8.38383      8.29429      8.41913        -0.013681      0.075457      0.019256
Ni	      6.32784      6.25551      8.41492        -0.053992      0.031712      0.038458
O	      2.17735      2.07186      2.19929         0.017279      0.082269     -0.033550
O	      4.21289      3.99670      2.17384        -0.086075     -0.087728     -0.007958
O	      4.05937      1.96006      4.09642         0.031942     -0.025991     -0.033902
O	      6.35739      4.28647      4.29695         0.020430     -0.017179      0.052979
O	      6.22901      2.27298      6.28585         0.136898      0.048246      0.019636
O	      8.21981      4.20219      6.21255        -0.032957     -0.092143      0.006908
O	      2.14221      4.00005      4.24879        -0.013336     -0.058793     -0.116927
O	      4.36944      6.21932      4.17842         0.008467      0.029423     -0.027510
O	      4.29624      4.14042      6.30733         0.095910      0.105927     -0.096906
O	      6.31070      6.19297      6.23384        -0.061044     -0.084686     -0.054195
O	      6.25771      4.26300      8.21367         0.105436     -0.049492     -0.045156
O	      8.29714      6.29248      8.40033         0.087366     -0.106779      0.107721
O	      2.13531      6.18867      6.29934        -0.012687      0.098938     -0.134810
O	      4.23203      8.27248      6.49793        -0.095930     -0.026911      0.061426
O	      4.22928      6.32501      8.49084         0.022189      0.064836      0.012888
O	      6.24065      8.32483      8.34235        -0.067035     -0.024455      0.095147
O	      6.12471      6.28688     10.48313        -0.049573     -0.014626      0.099793
O	      8.34687      8.50905     10.44411        -0.004492      0.065558      0.125904
