# total energy = -202.51512802 eV
 
CRYSTAL
PRIMVEC
-0.009195 6.174632 6.322600 
6.187365 0.008113 6.305689 
4.136528 4.116695 -0.006492 
PRIMCOORD
36 1
Li	      8.13220      2.11965      6.34462         0.000901      0.051806      0.006202
Li	      6.18538      2.11688      4.37666         0.018245      0.038793      0.081721
Li	      6.22099      2.10571      8.27273        -0.054676      0.080667     -0.043570
Li	      2.04983      4.08765      2.22142         0.000055     -0.005144      0.105118
Li	      2.14115      2.13608      4.12526        -0.006738      0.004671     -0.019677
Li	      4.04264      4.01328      4.12678        -0.006245     -0.013123     -0.040708
Li	      4.26488      2.00613      6.34727         0.042288     -0.054970      0.134752
Li	      6.25750      3.98842      6.29930         0.020373     -0.065404      0.005008
Li	      6.27219      4.18494     10.39778         0.007814     -0.013134     -0.076065
Mn	      8.21989      4.10843      4.24270        -0.040169      0.075985      0.103669
V	      4.16764      6.16289      6.08592        -0.020027     -0.120557      0.258748
Cr	      8.28836      8.21498      8.44558         0.034299      0.034497     -0.074854
Co	      4.09279      2.05069      2.14388        -0.181411     -0.042878     -0.065577
Cu	      6.21715      6.13950      8.46831        -0.027587     -0.036420     -0.035736
Ni	     10.26421      4.17982      6.31834        -0.041685     -0.118445      0.034225
Ni	      6.14631      4.14358      2.14201        -0.028520      0.077161      0.035872
Ni	      8.17839      6.16688     10.52139         0.023563      0.190235     -0.036370
Ni	      2.04050      4.12784      6.25043         0.070845     -0.046038     -0.001822
O	      2.27344      2.03604      2.10223         0.103980      0.115437      0.013294
O	      4.15233      3.93161      2.03922        -0.067530     -0.082542      0.116472
O	      4.16526      1.96821      3.99597        -0.009829     -0.051017     -0.027346
O	      6.35228      4.13652      4.15545         0.026364     -0.000105      0.067122
O	      6.18938      1.99893      6.36684         0.007711      0.152078     -0.028921
O	      8.26252      4.13381      6.08477        -0.099164      0.032182     -0.139308
O	      2.05396      4.18214      4.27398         0.012934     -0.176714     -0.092943
O	      4.11660      6.19820      4.36894         0.074772      0.024677     -0.204634
O	      4.10419      4.31067      6.40748         0.022435      0.121952     -0.022560
O	      5.96000      6.20107      6.35842         0.105130     -0.045262      0.051079
O	      6.08609      4.17698      8.40291        -0.020672     -0.062520      0.035425
O	      8.16949      6.27511      8.46312         0.100460     -0.015057     -0.112752
O	      2.22351      6.19509      6.35384         0.003699     -0.000108      0.007511
O	      4.12712      8.09998      6.53190        -0.068492     -0.077593     -0.043447
O	      4.11964      6.19820      8.50618         0.037705      0.034749      0.009263
O	      6.11216      8.21104      8.32491         0.010009     -0.060489      0.105440
O	      6.09178      6.20202     10.55637        -0.058319     -0.038262     -0.119371
O	      8.25686      8.31494     10.41627         0.007482      0.090890      0.014741
