# total energy = -100.25977660 eV
 
CRYSTAL
PRIMVEC
0.000029 2.199739 2.199699 
3.905691 -0.000189 0.000230 
-0.000643 9.346305 -9.346106 
PRIMCOORD
16 1
Li	      3.90559      2.73469      1.61964        -0.000756     -0.019932      0.025450
Li	      1.95215      2.60757     -0.43323        -0.000140     -0.025004      0.012532
Li	      1.95253      4.24355     -2.06919        -0.001424      0.012663     -0.026611
Li	      0.00096      6.29621     -1.94192        -0.000638      0.028494     -0.021076
Ti	      1.94787      6.76202     -4.72989         0.003229     -0.457726      0.167848
Ti	      1.94810      9.29255     -7.26001         0.003180      0.151408     -0.428146
Ni	      3.90470      4.52505     -0.15145         0.008404     -0.008508     -0.012675
Ni	      3.90057      7.03593     -6.98530         0.019104     -0.024241     -0.025749
O	      3.90143      7.16504     -4.87227        -0.004444     -0.091868      0.073936
O	      1.94881      7.26975     -6.75165        -0.014609      0.025766      0.022472
O	      3.90518      4.48375     -2.32196        -0.000651      0.050979     -0.056466
O	      1.94792      7.16843     -2.82728         0.001123      0.443670     -0.103232
O	      3.90486      2.35460     -0.19291        -0.000962     -0.059868      0.058065
O	      1.95240      4.52483     -0.15190        -0.007737     -0.006655     -0.006129
O	      3.90162      9.14905     -6.85586        -0.004129      0.076023     -0.097572
O	      1.94840     11.19428     -6.85214         0.000449     -0.095201      0.417353
