# total energy = -202.38296553 eV
 
CRYSTAL
PRIMVEC
0.003416 6.284062 6.206804 
6.195807 0.042903 6.166962 
4.162333 4.194856 -0.003278 
PRIMCOORD
36 1
Li	      6.25592      2.11392      4.18997        -0.023857     -0.037820      0.004209
Li	      8.22080      4.27472      8.24583        -0.098239      0.095404     -0.022243
Li	      8.22793      6.36907      6.21775        -0.066370      0.006484      0.044734
Li	      6.15827      4.29111      6.21062         0.004731      0.082672      0.053665
Li	      6.18306      4.26443     10.28417         0.005005     -0.071422     -0.082273
Li	      8.25511      6.30870     10.30337         0.003703     -0.007819     -0.074861
Li	      4.23104      6.22814      6.15173         0.044601     -0.013851     -0.088004
Li	      4.17441      4.19202      8.23138         0.047248     -0.057150      0.042988
Li	      6.28438      6.23898      8.15965         0.098904     -0.061936     -0.029026
Mn	      8.34495     10.48296     10.34658         0.047149      0.038269     -0.164155
V	      4.19724      8.37530      8.26394         0.215538      0.055109      0.204543
Cr	     10.20149      6.40981      8.23132        -0.303812     -0.034740      0.005800
Co	     10.33584      4.24525      6.16731        -0.120279      0.059744     -0.080609
Cu	      8.25081      8.43934     12.32082        -0.019722     -0.098092      0.098665
Cu	      2.10556      6.27160      8.25144         0.017631     -0.145452      0.171380
Cu	      4.12724      4.25559      4.20184         0.141488     -0.143206     -0.162684
Cu	      2.09494      4.15316      6.16418        -0.061715      0.047256      0.138725
Ni	      6.20442      6.32024      4.17333         0.045712      0.026188     -0.096034
O	      1.91976      6.25454      6.29468         0.036234      0.059183     -0.183552
O	      6.03348      8.35787      8.19589         0.021340     -0.000050      0.060899
O	      8.27374      8.58654     10.37538         0.005023     -0.014095     -0.030129
O	      2.20596      2.15229      1.95491        -0.044537      0.090874      0.041185
O	      4.11832      4.21407      2.03205         0.137512     -0.069104     -0.067201
O	      4.11688      2.02757      4.00037         0.134355     -0.181819      0.041123
O	      6.31285      4.25403      4.01867         0.088989     -0.149169      0.164526
O	      6.18054      1.96527      6.28226         0.263356      0.041807     -0.091314
O	      8.39855      4.23637      6.03669         0.041352      0.033562      0.140931
O	      2.15775      4.15417      4.20992        -0.216120      0.151518     -0.126310
O	      4.19629      6.25553      3.99825        -0.008987      0.339716     -0.040997
O	      4.07786      4.23809      6.11264         0.000919     -0.051626      0.228040
O	      6.20685      6.37605      6.16678         0.035345     -0.075725      0.132701
O	      6.23947      4.00529      8.19598        -0.083954      0.229747     -0.015164
O	      8.41200      6.32953      8.27950         0.015923     -0.018346     -0.079746
O	      4.19032      8.52543      6.25775        -0.278106      0.002323     -0.151328
O	      4.19149      6.39983      8.39013        -0.144533     -0.113147     -0.049911
O	      6.09445      6.33616     10.45777         0.018173     -0.015288      0.061427
