# total energy = -202.52710597 eV
 
CRYSTAL
PRIMVEC
-0.020214 6.077643 6.194401 
6.500764 0.014485 6.161379 
4.371655 4.066566 -0.027815 
PRIMCOORD
36 1
Li	     10.62552      4.04486      6.03384         0.036749     -0.006592     -0.040475
Li	      4.39795      2.04251      2.16678        -0.031480     -0.005448     -0.106025
Li	      8.72108      4.08838      4.20321         0.029565     -0.037194     -0.140495
Li	      6.38905      2.00820      4.03365        -0.007583     -0.082495      0.017620
Li	      8.61619      4.03701      8.10935        -0.009907     -0.012051      0.128091
Li	      8.63051      5.95250      6.04912        -0.018974      0.090281      0.067495
Li	      6.72928      4.13921      6.05919        -0.077521     -0.002323      0.024252
Li	      8.55119      6.10976     10.29312        -0.091874      0.037004     -0.023368
Li	      6.47530      6.10548      8.27723        -0.023429      0.026012      0.004566
Mn	      6.51508      4.11346     10.29305         0.104772      0.114197      0.206162
V	     10.68435      6.04307      8.02226         0.051912      0.024729      0.095755
Cr	      6.53002      8.13587      6.17627         0.064610     -0.207065     -0.066040
Co	      8.68588      8.18282      8.26869        -0.079311     -0.248651     -0.110091
Cu	      8.66956      2.08832      6.10427        -0.020536     -0.184243      0.082942
Cu	      2.20609      6.10415      8.26959        -0.021285     -0.144980      0.133285
Cu	      2.22388      2.01452      4.09839         0.114127      0.206737     -0.010445
Cu	      4.43292      4.03708      4.17394        -0.021097     -0.060786     -0.013794
Cu	      4.37159      6.10414      6.20147         0.173747      0.107518      0.074938
O	      2.31340      6.15338      6.23665        -0.087428      0.056771     -0.093205
O	      4.22078      6.09574      8.17171         0.347912     -0.533599      0.096319
O	      6.59546      8.17990      8.19398         0.431309     -0.110692     -0.144661
O	      6.53600      5.96351     10.25936        -0.077255      0.066187      0.020507
O	      2.01334      2.00250      1.99592        -0.063624      0.269874     -0.454931
O	      4.43890      4.22730      2.10241        -0.080977      0.032786     -0.030557
O	      4.20526      2.15024      4.10529         0.193629     -0.070858      0.032424
O	      6.63330      4.13550      3.99448        -0.118643     -0.198521      0.086416
O	      6.37790      2.05808      6.31746        -0.092238     -0.053576     -0.085370
O	      8.67084      3.95860      6.17387        -0.016145      0.003678     -0.022127
O	      1.98068      4.03214      4.17219        -0.108103      0.026344      0.047026
O	      4.52263      6.09987      4.05316        -0.124895     -0.010067     -0.039622
O	      4.19056      4.13996      6.17806        -0.097168     -0.128730     -0.045786
O	      6.43557      6.12822      6.17757        -0.056853      0.303619      0.274288
O	      6.45704      3.92088      8.36260        -0.354689      0.026806     -0.099198
O	      8.91850      6.06498      8.25989        -0.180598      0.618068     -0.013451
O	      4.51814      8.09559      6.05708         0.293974      0.111242     -0.089097
O	      8.95614      8.08674     10.31184         0.019307     -0.023983      0.236652
