# total energy = -201.78768061 eV
 
CRYSTAL
PRIMVEC
-0.024759 6.159493 6.280068 
6.097192 0.002659 6.252375 
4.079595 4.102754 -0.012993 
PRIMCOORD
36 1
Li	      4.08815      4.13267      0.07177         0.055400      0.033560      0.037898
Li	      1.96864      2.07158      0.14625        -0.098444     -0.068166      0.099627
Li	      1.94137      0.06796      2.04426        -0.008343     -0.002044     -0.058637
Li	      4.03047      2.13272      2.03407        -0.008792      0.029821      0.059311
Li	      6.05373      2.04481      4.28289         0.002584     -0.024067      0.118316
Li	      0.04839      1.96962      2.00777         0.008418     -0.016863     -0.087457
Li	      4.13843      2.01529      6.23550        -0.008119      0.017398     -0.056404
Li	      4.08703      8.21721      4.25585        -0.054560     -0.040411      0.002234
Li	      6.06578      6.18419      8.35651        -0.014249      0.025785     -0.039720
Mn	      4.12752      0.07403      4.21059         0.006512     -0.060244     -0.082009
V	      8.16964      8.16279      8.36786         0.063476     -0.013108     -0.035347
Cr	      1.98294      6.15165      4.23304         0.009688      0.148720      0.167633
Co	      6.05714      8.18913      6.25786        -0.044225     -0.006753      0.137319
Ni	      8.16594      4.07629      8.24610        -0.104203      0.157531     -0.078335
Ni	      1.99073      2.06360      4.10492        -0.037294     -0.016248      0.111780
Ni	      4.11006      4.07230      4.09577         0.149967     -0.062266      0.071305
Ni	      6.14057      4.05206      6.21497        -0.068103      0.197623     -0.029884
Ni	      4.05847      6.20579      6.29803        -0.071154     -0.037518      0.073826
O	      1.99989      2.12880      2.12398         0.030832     -0.088489     -0.143518
O	      4.01090      4.10708      2.14169         0.098674     -0.002879     -0.103673
O	      4.05944      1.96443      4.12471         0.151132     -0.143506     -0.060044
O	      6.20093      4.12837      4.20952         0.151744     -0.126297     -0.120928
O	      6.11234      2.13218      6.24022        -0.018692     -0.177341     -0.005758
O	      8.14528      4.11239      6.13319         0.106345     -0.023631     -0.108883
O	      2.03763      4.14412      4.28709        -0.056668      0.075873      0.293665
O	      3.98278      6.10526      4.25825        -0.088232      0.110426     -0.136134
O	      3.98020      4.12363      6.37237        -0.121853     -0.122222     -0.042244
O	      6.08401      6.26775      6.18158        -0.050891     -0.357871      0.025617
O	      5.92756      4.12971      8.21800        -0.003282     -0.013765      0.112429
O	      8.10318      6.27039      8.45695         0.000381     -0.022561      0.006846
O	      2.03552      6.00364      6.20795        -0.187499      0.411952     -0.020091
O	      4.24288      8.17575      6.29346         0.326278      0.130918      0.071543
O	      4.03672      5.99223      8.49030         0.016298      0.086379      0.080889
O	      6.26442      8.19456      8.13337        -0.069026      0.024429     -0.269972
O	      6.01699      6.15859     10.42659        -0.060885     -0.051763     -0.020907
O	      8.11091      8.21057     10.24841        -0.003216      0.027596      0.029705
