# total energy = -205.31461523 eV
 
CRYSTAL
PRIMVEC
0.027854 6.169174 6.380963 
6.129433 0.022390 6.387334 
4.067878 4.098134 0.032791 
PRIMCOORD
36 1
Li	      6.09118      0.06658      6.38759         0.030310     -0.035634      0.082751
Li	      8.10667      4.15838      4.38345        -0.027925      0.065110     -0.126032
Li	      8.14572      4.19754      8.37667         0.100033     -0.050490      0.054504
Li	      6.07797      6.12735      4.49804        -0.025398     -0.017026     -0.077522
Li	      6.18211      4.15733      6.35253        -0.023992      0.042221     -0.012987
Li	      2.14940      6.20723      4.26906         0.026847     -0.069784     -0.047819
Li	      4.12781      6.14359      6.42650         0.027170     -0.030944      0.029522
Li	      8.17899      8.13372      8.49173        -0.088158      0.108853     -0.022756
Li	      6.18175      6.17942      8.40280        -0.098186      0.079881      0.032671
Mn	      4.07063      4.11839      4.31243         0.034516      0.200543     -0.388693
V	      6.19161      4.37405     10.59541         0.186046     -0.215824     -0.384053
Cr	      2.08378      6.17402      8.48884         0.214413      0.083303      0.145199
Co	      8.20238      8.23316     12.75760         0.205862      0.534918      0.127457
Co	      4.04640      2.02858      2.18820         0.002748      0.104107      0.203967
Cu	      8.12013      6.10177      6.45250         0.086315     -0.048862      0.030592
Ni	      6.19479      8.21019     10.70788        -0.053467     -0.025298     -0.339854
Ni	      6.09454      2.09677      8.47852         0.109162     -0.208725      0.217089
Ni	      6.11106      8.19365      6.44509         0.066971     -0.006200      0.212555
O	      6.18306      6.18493      6.44859        -0.258454     -0.103850     -0.025825
O	      2.11022      2.02290      1.92972        -0.135337     -0.127137     -0.095783
O	      4.07273      3.98311      2.32037         0.130508      0.168966      0.096849
O	      4.09731      2.16562      4.34455        -0.097099     -0.068425     -0.198771
O	      5.97568      4.08610      4.18408        -0.028606      0.068092      0.067004
O	      6.24854      2.07298      6.39598         0.108517     -0.005050     -0.092731
O	      8.19525      4.07047      6.38362        -0.145027     -0.320289      0.012136
O	      1.95438      4.11190      4.32937        -0.046536      0.036039     -0.011582
O	      4.09253      6.01378      4.16874        -0.041294     -0.040074      0.222687
O	      4.08101      4.06741      6.21926         0.005269      0.261791     -0.049834
O	      6.10303      4.09501      8.82696         0.056435      0.175891      0.108990
O	      8.20764      6.18424      8.39319        -0.165480     -0.051920      0.074480
O	      2.05321      6.21671      6.51438        -0.109545     -0.314626     -0.073200
O	      4.04151      8.17586      6.17008        -0.079632      0.060725      0.134779
O	      4.03821      6.33458      8.56097        -0.183365     -0.338007     -0.014878
O	      6.01962      8.27357      8.57960         0.162222      0.053735     -0.032930
O	      6.19916      6.11147     10.61529        -0.017353      0.034191      0.100065
O	      8.31576      8.23604     10.81106         0.071511     -0.000200      0.041952
