# total energy = -205.08232591 eV
 
CRYSTAL
PRIMVEC
0.024847 6.201992 6.177744 
6.251431 0.052958 6.149937 
4.206274 4.154172 -0.002224 
PRIMCOORD
36 1
Li	      2.15632      8.21999      6.18742         0.025376      0.121458     -0.132468
Li	      8.31233     10.34957     10.15644         0.116489      0.007952      0.265569
Li	      6.26128      2.27166      8.26202        -0.152651     -0.029902      0.010442
Li	      8.19503      4.19558      8.30672         0.055599      0.118734     -0.039789
Li	      2.09084      2.05182      4.04040         0.012500      0.084301      0.118856
Li	      6.21319      4.09953     10.07101        -0.038108      0.012588      0.101947
Li	      4.17867      6.27112      6.18311         0.032975      0.048463     -0.165501
Li	      4.33955      4.15801      8.25881         0.013405     -0.138420      0.035941
Li	      6.31420      6.12958      8.19710         0.128656      0.016773      0.004444
Mn	      8.35044      6.27381      6.18588         0.101624     -0.305436     -0.043269
V	     10.39374      4.19587      6.16567         0.039412      0.002180     -0.415383
Cr	      6.29321      8.32940      6.19221        -0.041565     -0.232343     -0.321604
Co	      2.11006      0.05933      2.10839         0.004024      0.041192      0.352773
Co	      4.14968      2.06890      2.09010        -0.011051      0.073643     -0.035550
Cu	      6.26225      4.25187      6.19766         0.068998      0.021009     -0.105481
Cu	      8.43678      6.29342     10.22046        -0.244255     -0.132897     -0.017582
Ni	      6.35600      8.31846     10.23283         0.065194     -0.259118      0.135272
Ni	      4.20611      4.20407      4.08113        -0.267742      0.085803     -0.045331
O	      6.28367      4.20221      8.07268        -0.052782      0.024792      0.031085
O	      8.36077      8.16121     10.28041         0.086286      0.399811      0.000674
O	      2.23331      1.97582      2.07329         0.182335      0.189118      0.020029
O	      4.31437      4.07745      1.96625        -0.287282     -0.215837      0.319842
O	      4.27591      2.13129      4.06417        -0.146369     -0.157943     -0.107972
O	      6.25701      4.14148      4.11949         0.214948      0.321330     -0.186226
O	      6.15003      1.96715      6.15725         0.119283      0.063627      0.117322
O	      8.57503      4.26398      6.10587        -0.437970     -0.006431     -0.089292
O	      2.14620      4.33652      4.19342        -0.160751     -0.323059      0.072526
O	      4.04603      6.21855      4.14123         0.494785      0.129184     -0.034735
O	      4.08819      4.02292      6.14738        -0.021604      0.078811      0.131316
O	      6.44629      6.32289      6.08204        -0.112554      0.015048      0.024863
O	      8.36250      6.24061      7.99021        -0.028496      0.024244      0.091162
O	      1.96804      6.18218      6.39607         0.423615      0.150422     -0.038553
O	      4.25542      8.42350      6.31080        -0.016251     -0.129013      0.130882
O	      4.05299      6.36888      8.21395         0.270287      0.120022     -0.008109
O	      6.16041      8.39913      8.20345        -0.220348     -0.257686     -0.101366
O	      6.48985      6.21526     10.50390        -0.216014      0.037583     -0.076736
