# total energy = -205.94867064 eV
 
CRYSTAL
PRIMVEC
0.037770 6.406060 6.229132 
5.994395 0.028748 6.238489 
4.009037 4.289610 0.006476 
PRIMCOORD
36 1
Li	      6.00642      6.44467     12.37321         0.011627     -0.031423      0.042980
Li	      2.01833      0.12584      2.13055         0.031583     -0.035315      0.033593
Li	      6.05221      8.49817     10.44170        -0.035801     -0.040584     -0.042750
Li	      5.97430      2.24980      8.34417         0.035467     -0.067404      0.017460
Li	      4.05463      4.36141      4.18139         0.075971     -0.031277     -0.030165
Li	      5.99356      4.27419      6.24556        -0.003816     -0.013634     -0.112417
Li	      5.97564      4.28513     10.26283        -0.007270     -0.001121      0.076026
Li	      4.02893      6.34983      6.20273        -0.001567      0.037311      0.034833
Li	      6.00439      6.26040      8.36280        -0.052017      0.044431     -0.031699
Mn	      2.00946      6.31646      4.15788         0.021984      0.018442      0.209375
V	      4.20200      8.68722      8.28698         0.218788     -0.111944      0.211465
Cr	      1.98501      2.20210      4.16137         0.025363      0.068764      0.009680
Co	      4.11368      2.16893      6.31547        -0.097021      0.058829     -0.129449
Co	      6.03806      8.59429      6.26838         0.077145      0.032128      0.034269
Cu	      4.07685      6.46742     10.38479        -0.016065     -0.059707     -0.079365
Cu	      7.92037      4.26279      8.24515         0.097627      0.055005     -0.028153
Cu	      4.06906      4.29875      8.35322        -0.085971     -0.015237      0.108962
Ni	      7.96614      8.54594     12.41879         0.122725     -0.033123      0.039770
O	      4.04994      6.74986      8.50480        -0.012330      0.074374     -0.189027
O	      6.04243      6.37137     10.37081         0.111231     -0.048543      0.004272
O	      2.06623      2.25240      2.08177        -0.185230      0.040715     -0.036146
O	      3.96385      4.08303      2.03452        -0.004040      0.149614     -0.024590
O	      3.98000      2.36368      4.02405         0.065202      0.056116      0.055024
O	      6.15029      4.54316      4.17328        -0.135585     -0.081709      0.014951
O	      5.90393      2.14109      6.21487        -0.267165     -0.023712      0.054232
O	      7.99390      4.25301      6.02210        -0.015703      0.108272      0.303112
O	      1.98850      4.30982      4.36900        -0.019857      0.006534      0.016350
O	      3.98498      6.34481      4.14610        -0.146693      0.003190     -0.022032
O	      3.92680      4.25944      6.39327         0.007834     -0.087478      0.005452
O	      6.14700      6.64401      6.17018         0.179336      0.021680      0.107267
O	      5.98123      4.27110      8.25401         0.142426      0.015712     -0.013695
O	      7.99770      6.19100      8.38656        -0.063764     -0.079048     -0.160325
O	      2.01511      6.31180      6.09063        -0.014417     -0.038188     -0.047565
O	      4.05221      8.46378      6.45572         0.066036      0.022996     -0.164204
O	      6.02841      8.68371      8.26444        -0.180552      0.045760     -0.112417
O	      8.01282      8.26506     10.35324         0.054522     -0.060425     -0.155078
