# total energy = -203.58793837 eV
 
CRYSTAL
PRIMVEC
-0.131906 6.207613 6.656199 
6.094932 0.023145 6.495651 
4.110174 4.082250 -0.027879 
PRIMCOORD
36 1
Li	      6.05396      6.12920     12.93018        -0.046414      0.041567     -0.129105
Li	      2.02804      8.18221      6.51088        -0.031132      0.031947     -0.051722
Li	      1.94221      6.18806      8.61967         0.021839      0.070272     -0.012665
Li	      4.03661      8.18707      8.65005        -0.086824     -0.008208      0.078910
Li	      4.15811      0.04792      4.44425         0.090459     -0.004176      0.017702
Li	      6.10603      1.96161      4.44683         0.038145     -0.173669      0.038877
Li	      4.02128      8.30189      4.57485        -0.065523      0.096046     -0.062071
Li	      1.84461      6.20219      4.58789        -0.136257      0.066157     -0.059984
Li	      5.95927      6.25376      9.03722        -0.012790     -0.024081      0.055529
Mn	      8.12088      4.11564      8.59036        -0.227293      0.184780     -0.300004
V	      6.09295      2.09552      8.61245        -0.101584      0.175021      0.035778
Cr	      4.06209      4.11547      4.30379         0.010778     -0.185026      0.035852
Co	      8.03325      6.19590      6.49410         0.809438     -0.247448      0.556708
Co	      6.03861      4.15745      6.53979         0.213185     -0.022481      0.106858
Cu	      2.01641      2.04182      4.33210         0.186818      0.080573     -0.032096
Cu	      6.00518      8.25339      6.71035         0.026826     -0.155745      0.443765
Cu	      3.98440      6.20873      6.73615        -0.199342      0.143151      0.262549
Cu	      7.80612      8.48936      9.26573         0.280747      0.003685      0.420947
O	      2.04442      6.07159      6.59377         0.105088      0.010847     -0.103684
O	      4.09445      8.11890      6.60091         0.005813      0.027645     -0.037857
O	      3.95781      6.15831      8.79469         0.131406      0.183465     -0.318294
O	      6.06122      8.25059      8.81811        -0.425948     -0.138050     -0.554517
O	      5.98519      6.20402     11.00369         0.087513      0.007016      0.191834
O	      8.11035      8.21509     11.03050        -0.020466     -0.094303      0.005939
O	      1.94123      2.16576      1.97444        -0.004346      0.022226     -0.282975
O	      3.98981      4.14937      2.18561         0.067899     -0.116013      0.065466
O	      3.99010      2.13806      4.58416        -0.339579      0.049316      0.475823
O	      6.03669      4.18349      4.62098        -0.007254      0.118743     -0.057174
O	      5.95820      2.19869      6.65932        -0.704411     -0.018125     -0.243905
O	      7.97525      4.21125      6.62387         0.006290      0.759273     -0.013531
O	      2.06594      4.02276      4.02801         0.079532      0.017977      0.099314
O	      4.12499      6.11776      3.97769        -0.058432     -0.057796      0.056506
O	      4.06777      4.19050      6.34712        -0.167066     -0.741057     -0.141253
O	      6.03499      6.13606      6.63656         0.591878      0.024957     -0.073170
O	      6.18088      4.07255      8.50901         0.038314     -0.036654      0.035178
O	      8.20130      6.06870      8.52655        -0.157307     -0.091832     -0.509528
