# total energy = -206.38873207 eV
 
CRYSTAL
PRIMVEC
-0.031957 6.177559 6.234307 
6.207255 -0.050911 6.253148 
4.120692 4.113371 -0.016446 
PRIMCOORD
36 1
Li	      4.08122      2.05120      2.23733        -0.016539      0.099029     -0.013593
Li	      4.07836      0.08357      4.15374         0.012756      0.032738      0.084753
Li	      6.11771      2.06323      4.18306        -0.049362     -0.019691     -0.005015
Li	      0.07492      2.06939      2.13615         0.002242     -0.055744     -0.005944
Li	      2.01151      4.04386      2.17210         0.065382     -0.046415      0.056632
Li	      2.13222      2.01167      4.10990         0.080040      0.021576      0.022925
Li	      4.17334      3.99686      4.12318        -0.040103     -0.013538     -0.137210
Li	      4.08525      2.09182      6.06878        -0.034130     -0.007136     -0.118914
Li	      6.18814      4.05410     10.38471         0.032432      0.017074      0.064685
Mn	      2.06169      2.05663      0.05903         0.015131      0.048011      0.023362
V	     10.21833      4.10741      6.29081         0.156348     -0.116956      0.299872
Cr	      2.10141      6.14744      4.16103         0.092696     -0.331874      0.360240
Co	      2.10065      4.04869      6.17891        -0.224128     -0.099920      0.005871
Co	      4.12510      6.16749      6.18903        -0.028455      0.076005     -0.180035
Co	      6.16701      6.13372      8.31209         0.058224      0.191448     -0.116807
Cu	      4.14990      4.07042      8.33573        -0.035105      0.060997     -0.128587
Ni	      6.22551      4.11582      2.18679        -0.118320     -0.083540     -0.167362
Ni	      6.14303      4.09467      6.14445         0.269577     -0.115376     -0.220790
O	      2.06080      2.01392      1.95580         0.011410      0.176575     -0.106982
O	      4.20468      4.09724      1.84329        -0.087744     -0.021563     -0.048039
O	      4.12891      2.02346      4.16806         0.020082      0.023961     -0.022449
O	      6.22141      4.06225      4.12501         0.008734     -0.024367      0.251888
O	      6.30201      1.94919      6.29282        -0.068933      0.130888      0.038235
O	      8.33253      3.94143      6.24958        -0.221401      0.043629      0.033887
O	      1.99717      4.27883      4.22274         0.068653      0.018747      0.153073
O	      3.95824      6.19870      4.23017         0.023502      0.051756      0.096796
O	      4.09591      4.27558      6.11813        -0.204217      0.101495      0.594189
O	      6.00456      6.14304      6.17393        -0.102017      0.347052      0.121096
O	      6.12601      4.23443      8.25698        -0.076479     -0.000473      0.093040
O	      8.13791      6.16298      8.47632        -0.068042      0.067626     -0.151172
O	      2.09187      6.22873      6.25057         0.134749     -0.234848     -0.081526
O	      4.02215      8.22424      6.23674         0.066312     -0.209603     -0.000772
O	      4.19417      6.09721      8.12445         0.064094     -0.141631     -0.015180
O	      6.26923      8.07481      8.17747         0.210193     -0.080496     -0.261148
O	      6.31252      6.11715     10.64089        -0.025766      0.001380     -0.271138
O	      8.21930      8.02400     10.59343         0.008180      0.093185     -0.247880
