# total energy = -101.95856970 eV
 
CRYSTAL
PRIMVEC
0.000766 2.131367 2.130983 
6.010766 0.068341 -2.199253 
-1.994287 6.695270 -4.562106 
PRIMCOORD
16 1
Li	      0.13635      2.44619      1.82584         0.026529     -0.002898     -0.004236
Li	      1.84889      2.43209     -0.29705        -0.019189     -0.018913      0.014969
Li	      0.16163      4.14760      0.11753         0.019465      0.017277     -0.015229
Li	      1.87408      4.13339     -2.00552        -0.026477      0.004293      0.006974
Ti	      4.09380      4.42719     -4.43340         0.248165     -0.039860      0.053034
Ti	      1.93242      6.78468     -4.63878        -0.252696      0.039175     -0.050915
Ni	      4.01031      2.25822     -2.25513        -0.002293      0.000131     -0.000678
Ni	      0.00806      6.63750     -2.37099        -0.000562     -0.000067     -0.000745
O	      3.96731      4.59883     -2.46894         0.008747      0.131800     -0.114095
O	      4.05387      2.04927      0.09007        -0.008122     -0.132517      0.115998
O	      2.06867      6.85376     -2.58575         0.135542      0.041879     -0.040446
O	      2.09866      2.23948     -2.23967        -0.179468     -0.003001      0.007376
O	      3.95815      6.48955     -4.35514        -0.136799     -0.039831      0.037653
O	      0.09902      6.57609     -4.43750         0.302539      0.120998     -0.130315
O	     -0.08388      4.56751     -2.43537        -0.296362     -0.121022      0.129579
O	     -0.08894      2.20885     -0.07084         0.180981      0.002556     -0.008924
