# total energy = -206.94924648 eV
 
CRYSTAL
PRIMVEC
-0.012950 6.220447 6.269946 
6.106406 -0.020045 6.276585 
4.092114 4.172940 -0.035568 
PRIMCOORD
36 1
Li	      8.21215      8.30591     12.38458        -0.043067      0.005469     -0.003211
Li	      4.07963      2.08319      2.08585         0.017569      0.021559     -0.019095
Li	      8.24349     10.33152     10.48978         0.001622      0.007144     -0.075754
Li	      6.09706      8.20173     10.45185        -0.032015     -0.017626     -0.009144
Li	      4.05558      4.09760      4.21948        -0.009897     -0.004425      0.061576
Li	      8.10464      6.33822     10.45041         0.014999      0.041846      0.014122
Li	      4.05192      6.23627      6.21184         0.021819     -0.043729     -0.024772
Li	      8.20884      8.24086      8.43117        -0.128356      0.028435      0.006745
Li	      6.09757      6.23322      8.43862         0.001219      0.042983      0.020393
Mn	     10.15651      6.23139      8.34528         0.187122     -0.181955      0.059937
V	      2.18622      6.06905      8.37364         0.120349     -0.308995      0.088124
Cr	      6.13293      6.21796      4.13986        -0.320755     -0.016430      0.079283
Co	      6.09851      6.22120     12.51515         0.074175     -0.101182     -0.095334
Co	      2.04426      4.16627      2.07867         0.032434     -0.001340     -0.251868
Co	      2.05128      4.17274      6.26431        -0.100269      0.086688      0.259620
Cu	      4.05626      2.06570      6.23237        -0.128446      0.336816     -0.130779
Cu	      6.06616      4.14436      6.23166         0.030658     -0.009042      0.044683
Ni	     10.14446      8.33608     10.44547         0.080764      0.089147      0.171958
O	      8.28714      8.32157     10.43961        -0.489676     -0.002668     -0.053252
O	      1.92647      2.00663      2.15249         0.005402      0.004332     -0.097871
O	      4.15446      4.28926      1.91798        -0.520296      0.062350      0.009502
O	      3.97720      2.07411      4.22799         0.432134     -0.050766     -0.143272
O	      6.08639      4.21003      3.89079         0.002864      0.005233     -0.083084
O	      6.05680      2.03888      6.39081         0.437950     -0.111160      0.181723
O	      8.20528      4.22397      6.29119        -0.069520     -0.226898      1.120660
O	      1.91727      4.04604      4.17660         0.237740      0.160634     -0.674529
O	      4.10413      6.23414      4.00642        -0.129575     -0.188538     -0.208716
O	      4.07426      4.07801      6.23965        -0.465347      0.072996     -0.106125
O	      6.13716      6.15612      6.15614        -0.336444      0.474137      0.040550
O	      6.10492      3.96906      8.44263         0.491315      0.103634     -0.134531
O	      8.25880      6.20322      8.27589        -0.126006     -0.226048      0.112113
O	      1.92511      6.26904      6.44375         0.023172     -0.368019     -0.123990
O	      4.13105      8.50209      6.21114         0.563057     -0.030892      0.048157
O	      3.90865      6.26598      8.26595         0.032540     -0.014588      0.005728
O	      6.09599      8.45386      8.34753         0.069767      0.107651     -0.174694
O	      6.13465      6.17212     10.60610         0.020996      0.253248      0.085145
