# total energy = -208.05489012 eV
 
CRYSTAL
PRIMVEC
-0.038564 6.136964 6.076357 
6.461291 -0.040887 6.079336 
4.286095 4.072566 -0.006468 
PRIMCOORD
36 1
Li	      6.49952     10.08776      8.10127        -0.066884     -0.056618     -0.042050
Li	      4.40588      6.05298     10.08921         0.001514     -0.059725      0.031559
Li	      6.56661      8.10021     10.01188         0.037503      0.007431     -0.011518
Li	      4.21081      4.07907      4.07940        -0.034629      0.003804     -0.016268
Li	      6.30928      4.02072      6.17325         0.026734      0.029062      0.014480
Li	      6.39173      4.10525     10.04910        -0.015375      0.000325      0.108583
Li	      8.39667      6.13310     10.07375        -0.014628      0.033608      0.056799
Li	      4.30073      4.09708      8.14913        -0.020550     -0.010661      0.077661
Li	      6.26927      6.10263      8.24364        -0.014844     -0.006090     -0.031336
Mn	      8.54487      8.13705     12.05876         0.029229     -0.053442     -0.100922
V	      6.39056      5.93808      4.18139        -0.020201      0.300274      0.329842
Cr	      4.27532      8.13341      8.13579         0.013835      0.160657     -0.113288
Co	      6.41383      6.11515     12.06051         0.128377      0.004067     -0.040996
Co	      0.07090      2.08248      2.02508        -0.022688     -0.053248     -0.026881
Co	      2.18966      4.12617      6.06228        -0.104649      0.124147      0.198818
Cu	      8.58244      4.11696      8.15263         0.063972     -0.019519      0.180891
Cu	      4.38779      2.05027      6.06741        -0.148102      0.167804     -0.159696
Cu	      4.22050      6.05544      6.11272        -0.034545     -0.146752     -0.129199
O	      8.90094      6.08147      8.00801         0.120228      0.056658     -0.029886
O	      6.41592      6.12208     10.23457         0.015551      0.029524     -0.142236
O	      2.12397      2.08845      2.04990        -0.047388      0.062988      0.017993
O	      4.18298      4.09830      1.89331         0.131068      0.144108     -0.055372
O	      4.05491      2.03985      4.04055         0.233085      0.011372      0.050879
O	      6.40062      4.21445      4.04424        -0.010892     -0.300656     -0.029256
O	      6.66025      2.07545      6.18219         0.097862     -0.004030      0.020414
O	      8.78776      3.98549      6.02778        -0.021916     -0.045527      0.165585
O	      2.14802      3.97502      4.14985        -0.014863      0.008750     -0.461664
O	      4.51092      6.10794      3.97684        -0.118421     -0.043158     -0.051054
O	      4.16765      4.07075      6.10821         0.299306     -0.001939      0.173959
O	      6.43495      6.09460      5.95794        -0.048765     -0.141620     -0.094886
O	      6.61732      3.94282      8.10934        -0.114697      0.007410      0.005202
O	      1.92005      6.21250      6.05601        -0.226177      0.066605      0.042663
O	      4.09911      8.06991      6.12071        -0.029916     -0.008404     -0.067501
O	      4.23232      6.18705      8.04908        -0.071205     -0.211522      0.069599
O	      6.22119      8.14519      8.00797        -0.024690     -0.045552      0.147731
O	      8.54523      8.13811     10.24628         0.027760     -0.010133     -0.088647
