# total energy = -207.22339957 eV
 
CRYSTAL
PRIMVEC
-0.004279 6.180995 6.170956 
6.179088 0.018537 6.147854 
4.145664 4.131877 -0.014151 
PRIMCOORD
36 1
Li	      6.20366      4.16399      2.12401        -0.141104      0.008469      0.072714
Li	      8.13990      4.14090      4.10069         0.092679      0.038259      0.009119
Li	      4.13829      6.07607      2.05579         0.032886     -0.137000      0.016749
Li	      2.15805      4.11208      2.01171         0.112417      0.050195      0.087129
Li	      6.22586      6.05280      4.06955         0.017455     -0.010347     -0.067128
Li	      4.22133      4.10743      4.09987        -0.012577     -0.054827     -0.138541
Li	      8.25892      6.25700     10.26157        -0.094446     -0.068592      0.020403
Li	      2.13915      4.09111      6.19725        -0.026270      0.021582     -0.051953
Li	      6.17248      6.29067      8.14289         0.083755      0.021103      0.114510
Mn	      4.13429      2.06460      2.10853        -0.011783      0.461365     -0.028334
V	      6.30006      4.13700     10.06356        -0.094216      0.603974      0.314066
Cr	      4.13849      6.17732      6.15380         0.104234      0.084831      0.065287
Co	      4.19187     10.27194      6.19550        -0.229597      0.265448     -0.124281
Co	      2.07996      2.07145      0.00483         0.122624     -0.068618      0.240386
Co	      8.15454      6.16137      6.24177        -0.280354      0.283471     -0.570250
Ni	      6.18137      2.11203      4.07796        -0.030563     -0.262891      0.002573
Ni	      6.17645      4.13354      6.08947        -0.036094     -0.069547      0.012002
Ni	      8.14591      8.29747      8.24495        -0.067689     -0.067728      0.001015
O	      2.21856      2.08510      1.92786        -0.159867     -0.034500     -0.136940
O	      4.15774      4.01444      1.90693         0.022493     -0.197382      0.350308
O	      4.10876      2.07984      4.01072        -0.010496      0.000038      0.186114
O	      6.16328      4.08295      4.13421         0.056244      0.224398     -0.000232
O	      6.29470      1.98335      6.13571        -0.085240     -0.564326      0.170014
O	      8.25091      4.12731      6.16109         1.046067      0.270333     -0.001978
O	      1.85049      4.17633      4.09326         0.149577     -0.073888      0.087845
O	      4.13670      6.40415      4.14238        -0.039217     -0.154233      0.098291
O	      4.11791      4.16875      6.20364         0.006609     -0.317524     -0.046203
O	      6.19516      6.16273      6.11735         0.120895      0.070287      0.136331
O	      6.11322      4.17499      8.33100         0.104343      0.027452     -0.356097
O	      8.26431      6.26486      8.05038        -0.084373     -0.090751     -0.202717
O	      2.12988      6.33950      6.15443        -0.789797     -0.101190     -0.037671
O	      4.02652      8.25399      6.19029         0.167551      0.411364      0.154436
O	      4.15733      6.29173      8.13553        -0.092717     -0.205611     -0.031493
O	      6.07921      8.24456      8.22779         0.001768     -0.023667     -0.166935
O	      6.18074      6.05924     10.45900         0.017423     -0.300333     -0.340682
O	      8.35612      8.28192     10.33343         0.027376     -0.039613      0.162143
