# total energy = -209.76828519 eV
 
CRYSTAL
PRIMVEC
-0.010018 6.216133 6.072342 
6.250434 -0.030246 6.093225 
4.139820 4.130874 0.006666 
PRIMCOORD
36 1
Li	      6.08617      4.11224      2.07237        -0.044762      0.077680     -0.021734
Li	      4.13057      2.17415      2.02780        -0.024644      0.017239      0.095852
Li	      4.10040      6.23410      2.10156         0.016201      0.035269     -0.019046
Li	      4.09702      4.21662      3.97145         0.007367     -0.101369     -0.028328
Li	      6.25492      4.09142      6.17939         0.050399     -0.011091      0.008075
Li	      0.04398      4.08336      3.96958         0.020376     -0.012712     -0.077054
Li	      2.12094      6.16229      3.97318        -0.067294      0.071406     -0.047198
Li	      4.28930      4.06762      8.13629         0.082551     -0.034505     -0.013518
Li	      6.31646      6.06659      8.18074        -0.009334     -0.031065     -0.003128
Mn	      6.22939      8.28904     10.02955        -0.051369     -0.031017     -0.046813
V	      4.12728      6.17275      6.19846        -0.126587      0.146097      0.584322
Cr	      6.21268      8.26852      6.12796        -0.007320      0.151272      0.005797
Co	      2.04025      2.07197      0.04741         0.210078     -0.193414      0.231727
Co	      4.16303      6.19375     10.05766        -0.051884      0.141165     -0.036932
Co	      2.03771      2.06782      4.01272        -0.151651      0.021043      0.393763
Co	      4.19956      2.07876      6.12167         0.040376     -0.654358     -0.258778
Ni	      4.12932      4.11803      0.02133         0.144779      0.072099     -0.003831
Ni	      8.30549      4.13518      8.14997        -0.103297     -0.037539      0.069144
O	      6.41682      4.09784      8.12820        -0.231503     -0.005431      0.002965
O	      2.05360      2.20626      2.12006        -0.037181     -0.115621      0.003366
O	      3.97639      4.17156      1.99753         0.146748     -0.004244      0.132469
O	      4.23145      1.93443      4.14209        -0.508604      0.132863      0.201774
O	      6.37394      4.11429      4.02266         0.017090      0.271098      0.018013
O	      6.19267      2.04068      5.92545        -0.385295      0.077687     -0.020290
O	      8.34856      4.06636      5.92047        -0.171456      1.444295     -0.170760
O	      2.09011      4.00996      4.12568        -0.079801     -0.438377      0.222467
O	      4.18191      6.15327      4.30241         0.846244      0.170439     -0.476178
O	      4.06639      4.15463      6.14013        -0.002229     -0.649735     -0.045086
O	      6.24206      6.26064      5.99197         0.230446     -0.181953     -0.216060
O	      8.31772      6.06583      8.00715         0.079973      0.265681     -0.361520
O	      2.11580      6.19599      6.09515         0.373931     -0.620265     -0.121108
O	      4.16390      8.20472      6.09327        -0.189859     -0.193466     -0.088384
O	      4.18166      6.19288      8.03948         0.008606      0.024548     -0.103927
O	      6.16085      8.28704      8.16345        -0.011614      0.037478      0.074999
O	      6.12636      6.34423     10.12358         0.025424      0.099862     -0.073396
O	      8.15883      8.37581     10.12027        -0.044903      0.058938      0.188337
