# total energy = -212.25070521 eV
 
CRYSTAL
PRIMVEC
0.010573 6.220522 6.427471 
6.021067 -0.027634 6.466364 
4.021351 4.179271 -0.025146 
PRIMCOORD
36 1
Li	      4.05460      8.24054      8.59054        -0.038597     -0.064490      0.010615
Li	      3.99285      6.22158     10.50314        -0.077347      0.088783     -0.138082
Li	      4.03403      6.25079      2.16946        -0.033965     -0.031751      0.091925
Li	      4.05025      4.10113      4.48066        -0.018334     -0.028034     -0.094926
Li	      4.03774      2.20278      6.46735        -0.031222     -0.115152     -0.022763
Li	      6.16868      8.25539      6.64918        -0.144034      0.012587     -0.036442
Li	      4.00806      6.11059      6.55423        -0.018823      0.086768      0.054715
Li	      4.01912      4.22731      8.40847         0.024748      0.127352      0.159814
Li	      5.93062      6.27677      8.54546        -0.055569     -0.094269      0.044709
Mn	     10.01219      8.29053     10.74923         0.051754      0.042242     -0.042536
V	      2.00155      4.18052      2.16257         0.243181      0.435003      0.065565
Cr	      6.00965      0.02185      6.44748         0.178397     -0.049105     -0.083458
Co	      8.04302      2.09332      6.45256         0.097611     -0.052765     -0.115260
Co	      2.04425      6.21098      8.52221         0.002572     -0.310887      0.348738
Co	      5.88443      2.13875      4.15967         1.113275     -0.220893      0.477958
Co	      6.06766      6.14763      4.52711         0.324150      0.106208     -0.403265
Co	      2.07685      6.19580      4.26625        -0.140571      0.136220      0.020536
Cu	      5.96262      4.12414      6.46596         0.135333      0.219801      0.011901
O	      4.08436      4.12637      6.44183         0.118351     -0.014880      0.071951
O	      2.01257      2.24197      1.94710        -0.043809     -0.609202     -0.056146
O	      4.05687      4.19080      1.94643        -0.154237      0.020573     -0.176691
O	      4.06333      2.04930      4.32021        -0.945975     -0.113825     -0.095234
O	      6.01070      4.19356      4.01496        -0.026809      0.387280     -0.346316
O	      6.12349      2.06857      6.31225        -0.230230      0.114444     -0.281625
O	      7.99062      4.03911      6.58734        -0.200750     -0.054839     -0.013264
O	      1.94291      4.02655      4.17255         0.028138      0.195874      0.192299
O	      4.06837      6.38839      4.28294        -0.390309     -0.041903      0.023194
O	      6.05755      6.10641      6.32370        -0.025717     -0.372224      0.209341
O	      6.04864      4.12524      8.85370        -0.024095     -0.010059      0.044691
O	      8.05219      5.96942      8.63055        -0.042246     -0.069573     -0.082207
O	      1.98553      6.39697      6.46385        -0.027135      0.006550      0.246878
O	      3.98518      8.44161      6.24921        -0.049952      0.046255      0.051832
O	      3.87015      6.26476      8.53655         0.118985     -0.130200     -0.108157
O	      6.07444      8.28978      8.67810        -0.301822      0.913350     -0.087457
O	      6.05578      6.11455     10.84237         0.476896     -0.153651      0.005092
O	      8.06229      8.28546     10.92376         0.108157     -0.401588      0.052077
