# total energy = -212.81301284 eV
 
CRYSTAL
PRIMVEC
-0.032734 6.241547 6.168455 
6.189047 -0.012676 6.148513 
4.118233 4.139307 -0.000598 
PRIMCOORD
36 1
Li	     -0.00714      6.20598      6.15206        -0.025519     -0.039332      0.050752
Li	      4.12342      2.10168      2.24577        -0.049255      0.122707     -0.047590
Li	      4.10588      6.28883     10.17399         0.067957     -0.031780     -0.038187
Li	      6.09160      2.08289      4.02252         0.102251     -0.078386     -0.040950
Li	      4.11089      6.20695      2.08744         0.045897     -0.072220      0.092966
Li	      2.17049      2.00935      4.02617        -0.117842      0.057555     -0.140509
Li	      4.15028      4.03618      4.03891        -0.084079      0.084596     -0.137107
Li	      8.18080      8.30549      8.31015        -0.016206     -0.008488      0.074800
Li	      6.19984      6.19606      8.29291         0.030109     -0.062214      0.120483
Mn	      6.16857      4.11915      6.08796         0.145010     -0.005798      0.161986
V	      4.11695      6.25238      6.23235        -0.113022      0.140090     -0.208227
Cr	      4.13581      2.07266      6.12237         0.010820     -0.160564     -0.041936
Co	      6.04315      4.17204      2.10767         0.196254     -0.092131      0.182378
Co	      2.11903      4.09578      2.12167        -0.935686      0.392868     -0.080964
Co	      6.16418      4.15760     10.21798         0.135532      0.001184      0.076209
Co	      8.19179      6.24830     10.20671         0.201883     -0.237789      0.069420
Co	      6.14778      8.29718      6.22837         0.038721      0.216801     -0.181573
Ni	      8.21050      2.08291      6.13056         0.161149      0.081978      0.087537
O	      2.04734      2.03438      2.01931         0.054496      0.295176     -0.107167
O	      4.05458      4.12591      2.05067        -0.030469      0.093715     -0.231495
O	      4.11361      2.04529      4.22476        -0.000847     -0.067710      0.272880
O	      6.16559      4.15607      4.16191         0.105225     -0.073275      0.369090
O	      6.12490      2.21047      6.12207        -0.194641      0.176586      0.010427
O	      8.14124      4.18042      6.23482        -0.094930      0.098454      0.256086
O	      1.95452      4.20839      4.07497        -0.159918      0.686694     -0.156670
O	      3.94748      6.32398      4.23432         0.025629      0.100177      0.181226
O	      4.17154      4.17291      6.15305         0.207417     -0.089921      0.017764
O	      6.12906      6.11502      6.14807         0.111036      0.025203      0.037099
O	      6.29666      4.10332      8.24970         0.545247      0.051804     -0.263791
O	      8.24634      6.12144      8.16880         0.014192     -0.635271      0.678651
O	      2.11066      6.28400      6.13910        -0.051058     -0.291176     -0.674507
O	      4.10914      8.22355      6.01764         0.120926     -0.137454     -0.181591
O	      4.06857      6.27215      8.03873        -0.238559     -0.018237     -0.259967
O	      6.14304      8.48061      8.15682        -0.075647      0.040588      0.176594
O	      6.31020      6.09162     10.25948        -0.067844     -0.074532     -0.052367
O	      8.35717      8.23505     10.26670        -0.064230     -0.489899     -0.071750
