# total energy = -215.64732610 eV
 
CRYSTAL
PRIMVEC
0.035655 6.207108 6.293657 
6.242339 0.036554 6.292574 
4.166765 4.142050 0.019347 
PRIMCOORD
36 1
Li	      4.22684      8.28709      8.42490        -0.041999     -0.047616      0.061417
Li	      6.24965      2.13861      8.33123        -0.320906      0.201074      0.099859
Li	      4.14439      4.09250      4.19139        -0.080311      0.128864      0.068428
Li	      4.26178      2.13053      6.27535        -0.056168      0.061063      0.323305
Li	      6.26768      4.09554      6.42598        -0.098826      0.093246      0.166619
Li	      0.07499      4.10306      4.15943         0.052067     -0.102348     -0.202479
Li	      6.23941      8.29693      6.32860         0.099234     -0.087286     -0.072279
Li	      4.19899      4.17332      8.37605         0.015840     -0.335211      0.074685
Li	      6.29780      6.25895      8.42205         0.316967     -0.109802     -0.047263
Mn	      6.18486      4.10546      2.12406         0.590938      0.251756     -0.041633
V	      4.33820      6.11416      6.30145         0.500184     -0.394524     -0.492993
Cr	      8.29246      2.09313      6.29985         0.064207      0.025279     -0.034300
Co	      4.18159     10.28487      6.31494        -0.462672      0.135896      0.014187
Co	      4.22388      6.26396     10.47254         0.217161     -0.297400     -0.179297
Co	      6.21482      2.12291      4.20459         0.076538      0.077516     -0.201525
Co	      8.21293      4.20649      8.40721         0.602675      0.600693      0.144461
Co	      2.17223      2.12783      4.19245        -0.375829      0.490232      0.013278
Co	      8.33682      6.21980     10.30846         0.621896      0.047015      0.995334
O	      2.04668      1.99048      2.05920         0.031505     -0.359773     -0.277469
O	      4.22549      4.15462      2.05548        -0.122734     -0.113630     -1.096338
O	      4.23979      2.05682      4.24866        -0.123059     -0.152534     -0.062817
O	      6.23840      4.12009      4.03943         0.281726      0.102051      0.328788
O	      6.28765      2.08367      6.15669         0.084916     -0.520688     -0.159053
O	      8.30177      4.07542      6.31699         0.603014     -0.030436      0.431370
O	      2.14046      4.17817      4.14035        -0.333573     -0.918565     -0.395418
O	      4.12244      6.22909      4.43918         0.491653     -0.002103      0.440517
O	      4.18616      4.35469      6.34076         0.036189      0.101479     -0.077130
O	      6.11254      6.26982      6.34098        -0.281651      0.006293      0.060366
O	      6.40538      4.18528      8.42271        -0.088066     -0.094760      0.034289
O	      8.40365      6.23709      8.47187        -0.077726     -0.265447     -1.364534
O	      2.18325      6.22841      6.40526        -0.747940     -0.000734      0.134602
O	      4.10438      8.17211      6.29266        -0.049774      0.728766      0.033507
O	      4.05919      6.22118      8.26027        -0.275323      0.125473     -0.040809
O	      6.25545      8.42615      8.54100        -0.065815     -0.015382      0.095061
O	      6.34618      6.39670     10.50517        -1.051019     -0.105282      1.058979
O	      8.21965      8.27136     10.56670        -0.033316      0.776825      0.166286
