# total energy = -198.97731626 eV
 
CRYSTAL
PRIMVEC
-0.004177 6.147340 6.153219 
6.250290 -0.022116 6.171147 
4.160576 4.103932 -0.008488 
PRIMCOORD
36 1
Li	      4.10586      2.09943      2.09137        -0.068751      0.029400      0.048303
Li	      4.13379      0.05279      4.14154        -0.086073      0.018440     -0.059341
Li	      2.15156      4.06749      2.15607         0.082992     -0.021622      0.105752
Li	      6.19849      6.17187      4.08465        -0.000907      0.015445     -0.026780
Li	      4.15731      4.12073      4.08044        -0.007091      0.012859     -0.076871
Li	      6.24624      4.16044      6.05140        -0.068532      0.026519     -0.080530
Li	      2.09928      6.04785      4.09791         0.081862     -0.005572     -0.031294
Li	      4.18123      6.15567      6.02305         0.016589     -0.021074     -0.033901
Li	      6.27986      6.15173      8.20572         0.035617     -0.029201      0.000710
Mn	      8.27468      6.10413      6.14920        -0.167628      0.295113      0.035748
V	      4.24312      4.17234      8.26791         0.052048     -0.023405     -0.113604
Cr	      8.33649      2.04631      6.17556        -0.014307      0.044870      0.057783
Cu	      6.18565      2.02837      4.08990         0.043395      0.039077     -0.143028
Ni	      4.15186      4.09241      0.00824        -0.095577     -0.030767     -0.226090
Ni	      6.21587      4.11183      2.07899         0.126097      0.013663      0.004834
Ni	      4.17794      6.11863      2.10725        -0.011817      0.027674     -0.049472
Ni	      0.07382      4.09080      4.12101        -0.122772      0.023731     -0.090754
Ni	      6.21514      8.17630      6.10882         0.058885     -0.065321      0.145352
O	      2.05337      2.03733      1.94618         0.113117      0.139953     -0.035411
O	      4.20355      4.12114      1.90686        -0.257377     -0.145162      0.687653
O	      4.23109      2.03759      4.26583        -0.154461     -0.015675      0.052157
O	      6.23040      3.99312      4.01324         0.054639      0.038230      0.298106
O	      6.24225      2.02471      6.14993        -0.084376      0.151553      0.087651
O	      8.37822      4.13137      6.19869         0.011836      0.038711      0.013007
O	      2.02532      4.11230      4.14589         0.185063     -0.001204     -0.167844
O	      4.15841      6.22545      4.06959        -0.033669     -0.128859      0.219440
O	      4.12983      3.95248      6.31592         0.113581     -0.034034     -0.111594
O	      6.42745      6.13603      6.15507         0.084942     -0.164063      0.007919
O	      6.05148      4.07939      8.24343         0.070046      0.111947     -0.063697
O	      8.35528      6.24075      8.08760        -0.111204     -0.086543     -0.004743
O	      2.00697      6.20515      6.23282         0.044848     -0.106100     -0.251005
O	      4.08130      8.22983      6.14152        -0.004569     -0.214946      0.105407
O	      4.15674      5.93820      8.14582         0.081691      0.126759      0.002264
O	      6.37749      8.16520      8.21950        -0.006095     -0.097202     -0.072432
O	      6.23857      6.12661     10.43307         0.037964      0.037429     -0.416924
O	      8.29736      8.15719     10.16113        -0.000009     -0.000622      0.183227
