# total energy = -200.17022635 eV
 
CRYSTAL
PRIMVEC
-0.008796 6.194166 6.258194 
6.159457 -0.004760 6.254468 
4.101612 4.122301 0.001458 
PRIMCOORD
36 1
Li	      6.12976      0.05974      6.24150        -0.002736     -0.039919     -0.053393
Li	      2.04475      0.01816      2.08691        -0.016024     -0.136844      0.006626
Li	      8.21838     10.25852     10.47749         0.025791     -0.030067      0.055210
Li	      6.18270      2.06128      4.27554        -0.040124     -0.004311      0.022815
Li	      6.13543      4.11337      6.28001         0.012047     -0.003654      0.073267
Li	      6.09552      4.16284     10.36147        -0.016309      0.034564     -0.033489
Li	      2.12961      4.12454      6.22832        -0.028273      0.043695      0.023906
Li	      4.12034      6.11359      6.24121         0.036771     -0.009951      0.000047
Li	      6.17291      6.09560      8.32906        -0.020229      0.009584      0.010755
Mn	      6.13413      6.15040      4.19439         0.082437      0.046599      0.354439
V	      4.23912      8.14784      8.21387         0.361671      0.033332     -0.190806
Cr	      8.04588      6.23347     10.46523        -0.225283      0.072740      0.271982
Cu	      8.16610      4.13428      8.29395        -0.115589      0.086309      0.148962
Cu	      4.11954      4.13404      4.24201        -0.051737     -0.179524      0.052163
Ni	      8.14289      2.10316      6.20542         0.003616     -0.007461     -0.090203
Ni	      6.17996      2.06827      8.30149        -0.026412      0.050611     -0.110836
Ni	      4.11983      2.04629      6.24848         0.059746     -0.068765      0.069238
Ni	      4.14175      4.19969      8.34390         0.044617      0.158175      0.077128
O	      6.27975      6.16038     10.42190         0.084902      0.042253     -0.001439
O	      2.11289      2.00980      2.16744         0.098210      0.187686      0.106582
O	      4.00859      3.95116      2.10512         0.383219      0.001603      0.304394
O	      3.97402      2.08034      4.09307        -0.027541      0.052218     -0.167019
O	      6.06896      4.27953      4.17122         0.153556     -0.009587     -0.037711
O	      6.12908      2.02925      6.30595         0.072928     -0.011500     -0.102634
O	      8.20028      4.13625      6.36106        -0.006332     -0.041476     -0.415902
O	      2.10844      4.11509      4.08097        -0.109348     -0.052705      0.238496
O	      4.18509      6.13896      4.12831        -0.032206      0.040687      0.023850
O	      4.09807      4.03707      6.36702        -0.014451      0.276052     -0.532230
O	      6.21069      6.22556      6.06075        -0.234932     -0.023321     -0.178651
O	      6.19703      4.10702      8.36014        -0.222712      0.082695      0.048762
O	      8.25433      6.26513      8.48602        -0.152759     -0.343121     -0.008779
O	      2.10410      6.26029      6.03359        -0.020321     -0.183955     -0.049180
O	      4.03593      8.25734      6.46029         0.152390     -0.003466      0.089295
O	      4.11139      6.33884      8.36655        -0.039004      0.003723      0.034026
O	      5.99810      8.29876      8.36125        -0.160153     -0.024093     -0.020335
O	      8.17871      8.18069     10.39481        -0.009426     -0.048807     -0.019338
