# total energy = -103.35705138 eV
 
CRYSTAL
PRIMVEC
-0.000067 2.111701 2.112620 
6.091132 4.199270 -6.313892 
-4.097374 2.124124 -2.124833 
PRIMCOORD
16 1
Li	     -3.97284      2.06691     -2.06261         0.008493     -0.005037      0.004206
Li	     -2.07849      4.24131     -2.13026        -0.023927     -0.019152      0.018784
Li	      2.02290      6.31239     -4.19959         0.023065      0.020583     -0.018423
Li	      3.91805      6.37635     -6.37741        -0.010805      0.003393     -0.006406
Ti	     -0.10938      2.06077     -2.05981        -0.427590     -0.167548      0.166646
Ti	      4.15094      4.25789     -4.25681         0.430006      0.165811     -0.166135
Ni	     -0.02776      4.22090     -4.22110         0.000247      0.001743     -0.001648
Ni	      2.02073      4.21478     -2.10236         0.003281      0.000210     -0.000214
O	     -0.02190      6.36922     -4.25627         0.095300      0.063262     -0.069401
O	     -0.03369      4.18459     -2.07339        -0.099111     -0.065371      0.070751
O	      2.05075      4.17437     -4.17343         0.086494      0.080485     -0.081093
O	      0.00110      2.23832     -0.12634        -0.013159      0.147233     -0.152366
O	      1.99111      2.14359     -2.14397        -0.086223     -0.079713      0.083092
O	      1.88483      6.33840     -6.33757        -0.370478     -0.009837      0.010726
O	     -1.94063      2.10433     -2.10385         0.373897      0.008582     -0.009887
O	      4.04080      6.19158     -4.07803         0.010511     -0.144646      0.151367
