# total energy = -199.77330186 eV
 
CRYSTAL
PRIMVEC
-0.007199 6.679193 6.025652 
5.992715 -0.048636 6.063010 
3.986526 4.475038 -0.023532 
PRIMCOORD
36 1
Li	      3.94571     11.00154      5.94987         0.061482     -0.003470     -0.046153
Li	      8.01716      2.39531      6.05597         0.016605      0.064789     -0.025129
Li	      4.00743      8.59164      8.00937         0.014467     -0.050355     -0.044751
Li	      7.99075      4.44769      4.03367         0.044865     -0.004475     -0.008439
Li	      4.04355      4.38688      4.07402        -0.008027     -0.011271     -0.032503
Li	      3.95680      2.16509      5.96899         0.051520     -0.023556      0.006004
Li	      1.94184      6.76739      4.15794        -0.003551      0.025771      0.031822
Li	      3.94496      6.59462      6.07100        -0.060461      0.035466      0.019436
Li	      5.94343      6.71220      8.07937        -0.009731     -0.013992      0.034714
Mn	      2.07411      2.30638      3.99841        -0.077013     -0.075936     -0.138893
V	      5.92726      2.13692      7.91910         0.084029      0.012716      0.077168
Cr	      3.94810      8.95691      4.09844        -0.070630      0.122635      0.068080
Cu	      2.01307      6.68873      8.01236        -0.164132      0.064383      0.103631
Cu	      5.93792      2.16252      4.05977        -0.039835      0.014794      0.138041
Cu	      6.00858      4.60229      5.98189        -0.212544     -0.010904     -0.151773
Ni	      8.01040      4.45047      8.01853         0.004878      0.055912      0.116399
Ni	      5.99684      8.89575      6.07621        -0.040987      0.033917     -0.054372
Ni	      3.95780      4.49431      8.09154         0.141946      0.001550      0.130365
O	      1.94963      6.42702      6.18356         0.026263      0.025945     -0.281529
O	      3.84644      6.53122      8.06614         0.269622      0.128592      0.010972
O	      1.91425      2.45684      2.04440         0.030354      0.001742      0.030434
O	      4.09256      4.83749      1.98177         0.001539     -0.056026      0.018019
O	      4.00049      2.35285      3.95845        -0.006116     -0.007928     -0.010137
O	      5.99172      4.85009      3.84666         0.003248      0.083465      0.175032
O	      6.02174      2.27294      6.11602        -0.005196      0.021133     -0.093128
O	      7.90365      4.49501      6.06912         0.060315      0.060891     -0.208388
O	      1.97567      4.29170      4.01680         0.026594      0.014165      0.075004
O	      4.08736      6.89684      3.85713        -0.026819     -0.037482      0.039021
O	      4.06944      4.44451      6.19045         0.139578     -0.012918     -0.298174
O	      5.98934      6.72886      5.85704        -0.006512     -0.090501      0.063651
O	      5.91753      4.22442      8.15690         0.108878     -0.050312      0.080696
O	      8.15548      6.58452      8.07736        -0.116137      0.013178     -0.006965
O	      3.95177      8.80766      5.91792        -0.057299     -0.000239     -0.039274
O	      6.04844      8.67071      8.15388        -0.270237     -0.205793      0.018087
O	      6.00195      6.23268     10.03416         0.028819     -0.131238     -0.006423
O	      7.92029      8.80119      9.99991         0.060225      0.005352      0.209455
