# total energy = -200.23450012 eV
 
CRYSTAL
PRIMVEC
0.022736 6.391044 6.141913 
6.177751 0.041388 6.124694 
4.142086 4.273710 0.002766 
PRIMCOORD
36 1
Li	      6.16392     10.58793      8.14151         0.057190      0.013953      0.017709
Li	      4.24261      8.59258      8.14765        -0.052506     -0.054229      0.033194
Li	      6.23411      8.55692     10.15435        -0.007692      0.017683      0.032613
Li	      8.28607      4.42321      8.19860        -0.047421      0.039002     -0.011983
Li	      6.16091      6.46457      4.14182         0.051408     -0.036146      0.060811
Li	      8.22197      6.47292      6.21163        -0.057270      0.029016     -0.034663
Li	      2.09411      6.33500      4.05944        -0.017914      0.012268     -0.009836
Li	      4.21597      6.33035      6.12386         0.093279     -0.002095      0.011314
Li	      6.28711      6.48078      8.11215         0.000325     -0.042997     -0.083066
Mn	      4.15865      8.49355      4.10910         0.077126      0.057256     -0.021113
V	      4.05237      0.18109      3.95050        -0.025354      0.009543     -0.194169
Cr	      2.06175      2.08365      0.08934        -0.091944     -0.037800      0.176062
Cu	      4.10651      4.30408      0.07077        -0.086771      0.063316     -0.101963
Cu	     10.29650      6.46764      8.19324         0.119691      0.032234      0.031085
Cu	      4.11900      4.31439      4.06622         0.029053      0.013441     -0.196890
Cu	      6.20374      8.42342      6.17177         0.222913     -0.248128     -0.132473
Ni	      6.20013      4.35531      6.18157         0.089639     -0.074537     -0.022430
Ni	      8.22539      8.47949      8.15805         0.046959      0.042810      0.098785
O	      8.33771      6.48217      8.18437        -0.133375     -0.175520      0.033150
O	      1.91637      6.63818      6.10569        -0.056547      0.118464     -0.020848
O	      6.24297      8.52512      8.02931        -0.243590      0.088619      0.179248
O	      2.09816      2.20765      1.89484         0.057751      0.037964     -0.059882
O	      4.13496      4.41629      2.12095        -0.004916     -0.143483      0.056448
O	      4.20542      1.92028      4.06368         0.027138      0.013483     -0.000985
O	      6.38344      4.26638      4.12329        -0.126425     -0.102831     -0.105679
O	      6.28402      2.35944      6.20509        -0.087999     -0.175628     -0.174854
O	      8.29329      4.15612      6.02141         0.262688     -0.070733      0.072599
O	      1.95965      4.25710      4.25299         0.041809      0.025383     -0.197613
O	      4.14953      6.57445      4.01522        -0.001770     -0.022713      0.245635
O	      4.15106      4.31555      6.00515        -0.297177      0.008817      0.049816
O	      6.19915      6.26597      6.15477        -0.009303      0.475157     -0.036388
O	      6.15931      4.25638      8.28600         0.161050      0.075329      0.079215
O	      4.09722      8.38989      6.04007        -0.004969      0.012226      0.094321
O	      4.12624      6.32722      8.35415         0.036808      0.037492     -0.094313
O	      6.04290      6.25868     10.29320         0.198146     -0.005412      0.149745
O	      8.37363      8.66339     10.30195        -0.220028     -0.031204      0.077398
