# total energy = -199.00218600 eV
 
CRYSTAL
PRIMVEC
0.051400 6.216062 6.304002 
6.244868 0.034902 6.320867 
4.171227 4.162703 0.015488 
PRIMCOORD
36 1
Li	      0.23856      6.25993      6.25529        -0.014502     -0.045032      0.028986
Li	      2.11188      8.11099      6.25436         0.051888      0.034418      0.044064
Li	      2.20354      6.20125      8.28527         0.017781      0.011469     -0.028901
Li	      6.22031      6.23805      4.32220         0.019786     -0.020015      0.059940
Li	      6.18273      4.18682      6.24355         0.048254      0.017059      0.016256
Li	      2.14871      6.22969      4.43199         0.029657     -0.066389     -0.011938
Li	      2.16067      4.28426      6.27780        -0.051030     -0.005664     -0.007957
Li	      4.07437      6.20301      6.31160        -0.051687      0.004509     -0.001053
Li	      4.13708      4.23441      8.36620        -0.017328     -0.005910     -0.008329
Mn	      6.28263      6.25805      8.36912         0.018047     -0.058373     -0.200747
V	      2.16347      4.00646      2.09337        -0.078318      0.127372     -0.241039
Cr	      4.15977      8.26637      4.30634        -0.016239     -0.030025      0.230241
Cu	      4.28668      8.27059      8.30852        -0.249229      0.175976     -0.165732
Cu	      8.28781      4.16924      4.23868        -0.082903     -0.122765     -0.038950
Cu	      6.29106      2.11107      4.29203         0.131769     -0.227414     -0.036902
Cu	      4.19516      4.22987      4.31519         0.151312      0.010039     -0.082973
Cu	      4.18768      2.16116      6.33006        -0.099078     -0.138973      0.102071
Ni	      6.20816      2.14064      8.38325         0.073645     -0.042920     -0.012971
O	      2.12226      6.20627      6.37700         0.007238      0.054692     -0.063638
O	      4.39864      6.32751      8.27249         0.033539     -0.197862     -0.046043
O	      6.25596      8.17227      8.55424         0.155050      0.060279      0.039214
O	      8.37872      8.39533     10.52392         0.210162      0.360031     -0.033937
O	      2.11148      2.20973      2.10214        -0.026844     -0.210203      0.045870
O	      4.02397      4.14321      2.29527         0.171562      0.026763      0.037783
O	      4.27196      2.02402      4.35230        -0.499099     -0.554243     -0.172136
O	      6.33761      4.07660      4.17233         0.185045      0.654001      0.177670
O	      6.16932      2.08403      6.32567         0.077805     -0.006220      0.061774
O	      8.33016      4.24925      6.64684         0.027431      0.014908      0.144345
O	      1.97699      4.16558      4.01299         0.067823      0.033133      0.076088
O	      4.17594      6.37239      4.08608        -0.028914     -0.004767     -0.117673
O	      4.17942      4.12294      6.20844         0.098899      0.007404     -0.013367
O	      6.37426      6.26557      6.48613        -0.055452      0.006768      0.061254
O	      6.36285      4.25623      8.51566         0.045010      0.066022     -0.058792
O	      8.28788      6.18100      8.39624        -0.106999      0.015818      0.132402
O	      4.22448      8.36444      6.08945        -0.019051      0.101788      0.090268
O	      6.19754      6.16998     10.36346        -0.225031     -0.045674     -0.005147
