# total energy = -199.04234130 eV
 
CRYSTAL
PRIMVEC
0.044188 6.198061 6.200677 
6.320631 0.057691 6.184668 
4.273241 4.181338 -0.021658 
PRIMCOORD
36 1
Li	      2.24576      6.22629      8.33365        -0.018965     -0.018043     -0.041718
Li	      8.48645     10.30305     10.19991         0.021413      0.065607      0.031454
Li	      6.44733      8.41286     10.18954        -0.096906     -0.064803     -0.020336
Li	      2.08970      4.13381      2.11038         0.006385      0.046810     -0.032787
Li	      2.13040      2.05270      4.06870         0.094627      0.004719      0.074730
Li	      6.27595      4.16366     10.16883         0.006107      0.031866      0.026543
Li	      4.25930      6.23088      6.32203         0.039215     -0.003815      0.108345
Li	      4.31074      4.22994      8.34973         0.009313     -0.070078     -0.052036
Li	      6.27117      6.28693      8.31656         0.011095     -0.033451      0.017333
Mn	      8.47809      6.30536      6.21436         0.117919     -0.043768     -0.306031
V	     10.61443     10.34694     12.29003        -0.148268     -0.296249     -0.272840
Cr	      6.43383      8.32794      6.25080        -0.212387      0.034011     -0.011740
Cu	      4.24583      2.05070      2.13274        -0.252423     -0.095226     -0.023829
Cu	      0.06981      2.08424      2.04625        -0.082953     -0.053964      0.361221
Cu	      4.29130      4.22552      4.10842         0.190486     -0.218019      0.139902
Cu	      6.28871      4.26745      6.20871         0.044323      0.258241      0.054793
Cu	      8.53149      6.31239     10.24112        -0.165733     -0.082754     -0.083267
Cu	      2.17757      8.24416      6.16336         0.163887      0.147831     -0.003525
O	      4.25397      6.34009      8.29833        -0.071926     -0.027352      0.063553
O	      6.27351      8.31334      8.18768         0.056544      0.066941      0.156795
O	      6.43230      6.22281     10.48823         0.239235      0.028301     -0.099299
O	      8.51921      8.23035     10.42473         0.002139     -0.045035     -0.045714
O	      2.11606      2.10115      1.90549         0.369571     -0.071466     -0.075574
O	      4.25131      4.14211      1.79785         0.000650     -0.154283     -0.016521
O	      4.23545      2.33447      4.14557        -0.083470      0.032458      0.580947
O	      6.17702      4.22201      4.27489         0.147266      0.047182      0.167295
O	      6.20288      2.00437      6.23831        -0.142000     -0.158572     -0.195623
O	      8.64677      4.34208      6.04247         0.139456     -0.012432     -0.152209
O	      2.35036      4.28652      4.20093        -0.153468      0.191300     -0.011903
O	      4.29461      6.11345      4.00000        -0.206247      0.196799     -0.008129
O	      4.11670      4.03771      6.36224         0.078558      0.161350      0.253753
O	      6.57279      6.33474      6.18403        -0.112960     -0.215869     -0.063458
O	      6.39599      4.11958      8.13898        -0.020616      0.158435     -0.241235
O	      8.59560      6.25185      8.12732         0.003432     -0.084579      0.285147
O	      1.97601      6.16588      6.23315         0.017006      0.039223     -0.049293
O	      4.37843      8.40577      6.19322         0.009692      0.238685     -0.514745
