# total energy = -203.58094229 eV
 
CRYSTAL
PRIMVEC
-0.039067 6.231550 6.198830 
6.232663 -0.023374 6.182423 
4.156233 4.144650 -0.016703 
PRIMCOORD
36 1
Li	     10.28390      4.20764      6.23480        -0.004983      0.019209      0.004504
Li	      4.10736      2.16303      2.20807         0.000147      0.000591     -0.091198
Li	      4.12857      0.08555      4.16989         0.096779     -0.010564      0.011894
Li	      6.12648      2.07084      4.13688         0.044271     -0.074688      0.031136
Li	      2.23552      2.11454      4.03056        -0.053645      0.061892     -0.027430
Li	      4.10975      3.98681      4.05845        -0.049672      0.064865     -0.007947
Li	      4.26768      1.98514      6.00371         0.051413     -0.068275      0.065522
Li	      6.25329      4.18105     10.29890        -0.034054     -0.019100      0.033290
Li	      2.08784      4.13703      6.14440        -0.000624     -0.011826     -0.000967
Mn	      6.16779      6.25839      8.29067         0.036725      0.031191      0.118129
V	      4.19001      6.24419      6.03089        -0.027810      0.128872     -0.081442
Cr	      1.99727      6.17015      4.15864        -0.002937      0.015778      0.129098
Fe	      8.25913      2.11959      6.14682         0.060355     -0.153684     -0.030800
Cu	      8.27834      8.29371      8.29176         0.001387     -0.019749      0.101488
Ni	      6.16899      4.10492      2.13610         0.046970      0.008802     -0.085522
Ni	      0.00669      2.03500      2.03076        -0.075853      0.092515      0.160846
Ni	      2.12405      4.10189      2.08296        -0.010127      0.001876     -0.021355
Ni	      6.23368      4.12018      6.08084         0.033587      0.024900     -0.122407
O	      2.01418      2.04067      1.97108         0.154761     -0.004624      0.160846
O	      4.15933      4.19850      2.03850        -0.101959     -0.159615     -0.012688
O	      4.13862      2.04039      4.13268        -0.003944      0.037130     -0.038164
O	      6.25577      4.17550      4.09109        -0.031301     -0.042647      0.090786
O	      6.28574      2.08427      6.20473        -0.149865     -0.091529     -0.109289
O	      8.29643      4.06278      6.23641         0.070023      0.180216     -0.070470
O	      2.03108      4.23992      4.06844        -0.002220     -0.136942      0.094080
O	      4.07530      6.22129      4.23947         0.066889     -0.028728      0.038845
O	      4.14938      4.35645      6.24664        -0.090165     -0.046574      0.043040
O	      6.04079      6.24024      6.29592         0.091646      0.065337     -0.030771
O	      6.18325      4.21945      8.18631         0.036655      0.104957      0.107911
O	      8.20660      6.24436      8.31584        -0.135872     -0.060428     -0.134412
O	      2.17804      6.21610      6.19499         0.017821     -0.039514      0.042471
O	      4.04790      8.05337      6.23695         0.124933     -0.011043     -0.006253
O	      4.21334      6.14032      8.20037         0.100019      0.167286     -0.027059
O	      6.28799      8.18844      8.25512        -0.113607     -0.111077     -0.038291
O	      6.27946      6.18407     10.16925        -0.147179     -0.001554     -0.052511
O	      8.31021      8.15348     10.37155         0.001437      0.086741     -0.244912
