# total energy = -204.82929114 eV
 
CRYSTAL
PRIMVEC
0.016603 6.384763 6.110285 
6.185021 0.005563 6.119380 
4.148894 4.288229 -0.020507 
PRIMCOORD
36 1
Li	      6.29033     10.55978      8.12406         0.097859     -0.051179      0.016929
Li	      4.26104      8.35564      8.12650        -0.009690     -0.166340      0.055330
Li	      4.23424      6.33202     10.22508        -0.000887     -0.005756     -0.088044
Li	      8.20289      6.44838      6.06748        -0.016565      0.036249     -0.037836
Li	      6.15865      4.36761      6.05695        -0.029602      0.027060      0.013633
Li	      6.13348      4.40892     10.23115         0.011321      0.022586     -0.022363
Li	      8.20755      6.42176     10.24675         0.029052      0.037842     -0.061248
Li	      6.25511      8.51203      6.17986         0.029358     -0.052181     -0.005779
Li	      4.03302      4.37512      8.15669        -0.057465      0.084523     -0.009334
Mn	      2.11889      8.49484      6.11714        -0.133341      0.039892      0.059717
V	      6.07229      2.35929      8.21510         0.159437      0.006439      0.044773
Cr	      6.18123      8.50199     10.16185        -0.152640      0.057470      0.016997
Fe	      2.19662      2.05988      4.07612        -0.035531     -0.074528      0.182666
Cu	      2.10868      4.25618      2.02747        -0.338708      0.100342     -0.064021
Cu	      4.12767      4.25734      4.04330         0.158488      0.003949      0.282753
Cu	      4.13598      6.38830      6.13250        -0.053833      0.072006     -0.042472
Ni	      4.20805     10.59220      6.10812         0.146822      0.042723     -0.086063
Ni	      6.19054      6.46099      8.13420         0.128744     -0.098424     -0.050115
O	      4.21373      6.31517      8.06117        -0.148193      0.018665      0.112160
O	      6.22291      8.48218      8.21698         0.013954      0.125212      0.018111
O	      1.89998      1.99282      2.00876        -0.016744     -0.079784     -0.098217
O	      4.06329      4.48662      2.10567        -0.035092     -0.007606     -0.099712
O	      4.09588      1.96524      4.09090         0.259925     -0.199789     -0.015901
O	      6.01745      4.22761      4.06360         0.097238      0.042708     -0.049522
O	      6.29420      2.06632      6.21427         0.079315      0.005058     -0.088865
O	      8.33016      4.06444      6.21595        -0.019110     -0.051764      0.013795
O	      2.23572      4.15377      3.98208        -0.064009      0.062399     -0.047357
O	      4.24181      6.58757      3.86540        -0.040636      0.116948     -0.011985
O	      4.09507      4.42823      5.90686        -0.039330     -0.252300      0.073797
O	      6.13097      6.40784      6.03280         0.188410      0.000722     -0.229964
O	      6.27634      4.16853      8.10676         0.055750      0.109746     -0.057033
O	      8.46210      6.57866      8.06511        -0.105544      0.044734      0.006243
O	      2.14411      6.55377      6.08292        -0.229812     -0.003397      0.053444
O	      4.01395      8.49937      6.11825         0.047629      0.072653      0.024145
O	      6.25411      6.48955     10.18859         0.020179     -0.058591      0.124435
O	      8.17666      8.60424     10.34959         0.003250     -0.028287      0.066903
