# total energy = -204.58059938 eV
 
CRYSTAL
PRIMVEC
0.022384 6.151271 6.086835 
6.451935 0.011327 6.097710 
4.312428 4.118463 -0.003004 
PRIMCOORD
36 1
Li	      0.05531      0.04877      0.02906        -0.022579     -0.021539      0.037813
Li	      2.05827      0.05764      1.97329        -0.094515     -0.026244      0.011622
Li	     10.76068      6.10948      8.04807         0.000415     -0.055861      0.019285
Li	      2.26476      4.12444      2.05291         0.097008      0.033593      0.000331
Li	      4.23926      4.07887      4.04065        -0.061130     -0.016203     -0.054255
Li	      6.51795      4.03403      6.14236         0.121446     -0.001680      0.032707
Li	      6.48359      4.16267     10.17952         0.011646     -0.005085      0.022047
Li	      2.17040      6.13054      4.07506        -0.025301      0.015091     -0.078332
Li	      4.18194      6.17646      6.11618        -0.018764      0.008651     -0.018107
Mn	      8.62660      8.21320     12.17792         0.132253      0.082121      0.123457
V	      6.22328      6.11514      4.15969        -0.190678     -0.035337     -0.373444
Cr	      6.47246      6.09902      8.10493         0.210236      0.327777     -0.018936
Fe	      4.28012      2.20319      1.99466        -0.068780     -0.137537      0.250631
Cu	      4.38503      6.17751     10.16778        -0.070015     -0.116852      0.053902
Cu	      8.69039      6.13734      6.13152         0.120425     -0.180439     -0.066834
Cu	      2.16891      4.20964      6.07535        -0.090996      0.147485      0.048873
Cu	      4.38353      4.08700      8.11273         0.205734      0.145306      0.219882
Ni	      6.47773      2.11674      4.07718         0.002659      0.130828     -0.070638
O	      2.20643      6.30890      6.03301         0.058013     -0.447355     -0.020964
O	      6.40947      6.23134     10.03997         0.098736     -0.123089     -0.001747
O	      8.59065      8.31249     10.16046        -0.035796     -0.141976      0.102014
O	      2.26782      2.08516      2.07982        -0.196678     -0.063732      0.188172
O	      4.32964      4.03558      2.07395        -0.016593      0.467219      0.066463
O	      4.34491      2.00090      4.10529        -0.010575      0.208133     -0.162316
O	      6.58317      4.28102      4.01307        -0.037399      0.027634      0.112137
O	      6.69935      2.09538      6.07249        -0.189586      0.046944      0.127835
O	      8.66317      4.11393      6.03489        -0.020748      0.091507      0.158174
O	      2.18306      3.86460      4.14455        -0.014467      0.075295     -0.138713
O	      4.50500      6.10210      4.00597         0.068254      0.003664      0.050946
O	      4.20218      3.96970      6.18656        -0.098403      0.352321     -0.375766
O	      6.32901      6.06510      5.97328         0.055027      0.025608      0.235681
O	      6.43333      4.22041      8.14428        -0.323760     -0.317624     -0.065835
O	      8.52970      6.24215      8.09183        -0.452076     -0.394021      0.197376
O	      4.19782      8.21983      6.13617         0.149615     -0.136059     -0.323694
O	      4.41874      6.13481      8.17465         0.291717      0.122699     -0.295327
O	      6.33677      8.16504      8.05634         0.415656     -0.091244      0.005559
