# total energy = -204.17239750 eV
 
CRYSTAL
PRIMVEC
0.046840 6.685461 6.304949 
5.939932 0.075594 6.279405 
4.004705 4.484338 0.005721 
PRIMCOORD
36 1
Li	      7.90130      2.45745      6.22499        -0.037264      0.040546     -0.065052
Li	      7.93774      4.51336      4.29629         0.048584     -0.059724     -0.009935
Li	      5.93773      2.39198      4.24373         0.118247      0.006850      0.109408
Li	      7.94764      4.70898      8.23748        -0.044261      0.108793     -0.024269
Li	      2.03443      2.16230      4.13064        -0.056442     -0.053815      0.005094
Li	      7.98862      6.58676      6.27315         0.049613     -0.022381      0.058547
Li	      6.06007      4.39447      6.20486         0.028508      0.025663     -0.002455
Li	      7.95690      6.87166     10.44767        -0.027718      0.124711     -0.042257
Li	      6.04714      6.69514      8.46621         0.089434     -0.053117      0.057565
Mn	      1.94388      0.07757      2.08209         0.050491     -0.357993      0.103537
V	      4.14533      6.61636      6.23190        -0.093755     -0.047194      0.056227
Cr	      8.00513      8.96603      8.46566         0.066130     -0.194346      0.177654
Fe	      5.99781      4.65696     10.53889        -0.003298     -0.077346     -0.133442
Cu	      5.96135      2.39830      8.23827         0.095835     -0.154089     -0.277004
Cu	      3.93120      4.26159      4.16443        -0.028586      0.132614     -0.018797
Cu	      6.01205      8.97156      6.30714         0.205824     -0.050561     -0.030950
Cu	      5.93337      0.27620      6.20150         0.252398     -0.248304     -0.004931
Cu	      3.93896      2.24822      2.12517        -0.307102     -0.147219      0.002732
O	      8.05958      6.98375      8.37727        -0.592038      0.075870      0.045491
O	      6.01952      6.60008     10.65168         0.040467      0.069931     -0.222253
O	      1.96284      1.99934      2.10201         0.362174      0.282554      0.052262
O	      4.03053      4.71297      1.86513         0.090077      0.054433      0.166912
O	      3.96371      2.32892      4.02643        -0.067085     -0.059603     -0.053977
O	      5.83026      4.48989      3.97953         0.151773      0.026127     -0.078024
O	      5.95201      2.45751      6.25769        -0.023624      0.220606      0.254758
O	      8.10329      4.54874      6.27297        -0.165931      0.035336     -0.031724
O	      2.02203      4.39954      4.33789         0.007448     -0.140670      0.021662
O	      3.99424      6.69200      4.47894         0.010460      0.024030     -0.135343
O	      3.95427      4.73299      6.42872        -0.026552      0.068601     -0.019892
O	      5.86649      6.56657      6.41541         0.200461     -0.062151     -0.057851
O	      5.99608      4.44605      8.54658         0.120415      0.159127      0.006442
O	      2.05773      6.80403      6.44598        -0.144852      0.123102      0.023468
O	      4.08063      8.59259      6.38989        -0.137076     -0.048400      0.223000
O	      3.90586      6.55324      8.34409         0.006923      0.023142     -0.120708
O	      5.96626      9.20761      8.30848        -0.001170      0.178915     -0.046367
O	      8.07752      8.97462     10.43314        -0.238508     -0.004036      0.010472
