# total energy = -212.63899136 eV
 
CRYSTAL
PRIMVEC
0.015647 6.140859 6.349266 
6.195890 0.015822 6.347911 
4.164887 4.128846 -0.024355 
PRIMCOORD
36 1
Li	      4.17739      8.16266      8.45878         0.024079      0.006666     -0.006491
Li	      4.18679      6.15384     10.49107         0.015007     -0.022577     -0.049833
Li	     10.30767      6.26611      8.49827         0.003405     -0.033825      0.081132
Li	      2.06838      2.06523      4.22499        -0.032051     -0.008333      0.045152
Li	      8.24579      6.20107      6.45702        -0.033610      0.018516      0.019001
Li	      6.21728      4.10755     10.47880        -0.014002     -0.030622      0.023251
Li	      8.26449      6.17046     10.45664         0.018658      0.022940     -0.075105
Li	      4.21491      6.13268      6.32817         0.006534      0.022393     -0.056719
Li	      6.26259      6.08982      8.41836        -0.053308      0.021749      0.019965
V	      6.17910      8.14881     10.57301         0.197707     -0.162858     -0.131439
Cr	      4.10925      4.25266      4.17391        -0.052075      0.163604     -0.046831
Fe	     10.32158      4.15190      6.36339        -0.052006      0.083218     -0.083881
Fe	      2.14610      8.20310      6.34940        -0.011336     -0.067885      0.008902
Fe	      2.21741      6.20651      8.49431        -0.436452     -0.123385      0.111856
Fe	      6.24749      8.07907      6.34175        -0.011315      0.157621      0.021836
Co	      8.27029      4.17798      8.48884        -0.038260      0.065286     -0.143160
Cu	      4.25571      4.04820      8.50387         0.018752     -0.094694     -0.009817
Ni	      6.17428      4.20545      6.38211        -0.018246      0.080967     -0.072592
O	      2.11370      2.07096      2.01824         0.039374     -0.002763      0.122737
O	      4.09619      4.14724      2.11609         0.107616      0.002087      0.003561
O	      4.34468      2.17230      4.16858        -0.246084      0.020602     -0.038001
O	      6.10868      4.09759      4.15871         0.010981      0.058978      0.020593
O	      6.24492      2.07627      6.23881        -0.136465      0.007825      0.083722
O	      8.28703      4.10369      6.53295         0.165847      0.087594      0.026689
O	      2.21832      4.07406      4.11798        -0.063324     -0.024349      0.093245
O	      4.16136      6.02941      4.19846         0.003508     -0.032436     -0.004340
O	      4.06636      4.12907      6.13522         0.036546     -0.011887     -0.121795
O	      6.21286      6.23189      6.27705         0.042702     -0.336226      0.010487
O	      6.27177      4.09943      8.40641        -0.090223     -0.051702      0.173955
O	      8.25797      6.12868      8.47194         0.008914      0.069788      0.070701
O	      2.00526      6.13590      6.47483        -0.070227     -0.028664     -0.081721
O	      4.18645      8.27595      6.29512         0.096155     -0.022643     -0.000427
O	      4.09126      6.03632      8.48236         0.481687      0.119534      0.059395
O	      6.31627      8.24993      8.47636        -0.049292      0.028554      0.004791
O	      6.16308      6.24641     10.73269         0.036451      0.023469     -0.021602
O	      8.10361      8.26022     10.73283         0.094351     -0.006542     -0.057217
