# total energy = -102.25617064 eV
 
CRYSTAL
PRIMVEC
-0.000095 2.071127 2.071488 
8.961718 -4.263261 4.263483 
2.150288 4.139864 -2.069124 
PRIMCOORD
16 1
Li	      0.35005      2.00512      2.13371        -0.023488     -0.015069      0.016364
Li	      2.47502      1.87357      0.19263        -0.008969      0.006755     -0.012854
Li	      4.15360      2.19889      1.93823         0.010980     -0.008733      0.011481
Li	      6.27863      2.06782     -0.00214         0.022143      0.012888     -0.014051
Ti	      6.44946     -0.07294      2.14020        -0.749861      0.093351     -0.094369
Ti	      9.14048     -0.11670      4.25547         0.744710     -0.089852      0.088597
Ni	      4.39002      4.10629      0.03100         0.000169     -0.001752     -0.000099
Ni	      8.87016      1.97519      2.16312        -0.002334     -0.001293     -0.000003
O	      6.81817      1.85496      2.28379        -0.102406     -0.113263      0.108306
O	      6.77980     -0.04943      4.18774         0.023840      0.108219     -0.102141
O	      8.80986     -0.14006      2.20767        -0.022655     -0.109281      0.105757
O	      8.77167     -2.04443      4.11162         0.102198      0.111443     -0.105159
O	      1.94408      4.17795     -0.03981        -0.702714      0.013315     -0.016810
O	      2.21363      1.99080      2.14700         0.019141      0.113803     -0.116914
O	      4.41518      2.08165     -0.01583        -0.020597     -0.109859      0.116254
O	      4.68384     -0.10467      2.17161         0.709843     -0.010672      0.015641
