# total energy = -212.24773527 eV
 
CRYSTAL
PRIMVEC
0.005492 6.210921 6.179428 
6.305067 0.004533 6.180344 
4.196007 4.133920 0.010824 
PRIMCOORD
36 1
Li	      4.21771      4.16392      0.08551         0.015578      0.027500      0.038619
Li	      2.07602      2.05194      0.12587         0.011310     -0.026226     -0.013170
Li	      2.15028      6.18849      8.06550        -0.101024     -0.027539     -0.095125
Li	      4.23955      6.23027     10.29017         0.023657     -0.032886      0.143566
Li	     10.47439      6.13612      8.16502         0.034035      0.000668     -0.033785
Li	      8.45159      6.16242      6.27417         0.010899     -0.035565     -0.042151
Li	      6.29742      8.35010      6.28587        -0.038847     -0.000326      0.053586
Li	      4.12356      6.21849      6.26419        -0.041593      0.041309     -0.084855
Li	      6.26932      6.24167      8.21783         0.054418      0.014128     -0.013662
V	      6.27432      6.16742      4.13154         0.170966      0.045810      0.032745
Cr	      6.29517      8.25364     10.29150         0.185249     -0.079312     -0.000089
Fe	      4.20617      4.12656      4.12281        -0.185520     -0.017916      0.104005
Fe	      6.36620      4.07081      6.27918        -0.010539      0.073518      0.080731
Fe	     10.43658      8.37620     10.44718        -0.208679     -0.052522     -0.131573
Fe	      2.08014      6.22201      4.22424         0.011114      0.147065     -0.017429
Co	      4.17941      4.18365      8.18224        -0.061030      0.543217     -0.377577
Ni	      4.22232      8.23529      8.14108         0.278411     -0.000028     -0.108206
Ni	      8.43379      4.18826      8.19466        -0.141800      0.014427      0.036837
O	      2.17768      2.07783      2.24348        -0.179164     -0.096592     -0.037173
O	      4.15594      4.08344      2.15873         0.070417      0.120455     -0.020079
O	      4.22562      2.10807      4.04838        -0.021981     -0.055396      0.140221
O	      6.21451      4.13029      4.15546         0.137743     -0.013191     -0.021932
O	      6.30729      2.12301      6.08510        -0.039820      0.017556      0.042020
O	      8.28803      4.14679      6.24438        -0.043796     -0.013052     -0.248949
O	      2.08329      4.10902      4.08424         0.048080      0.040189      0.118694
O	      4.28222      6.20013      4.09511        -0.140175     -0.009880     -0.009366
O	      4.28423      4.13935      6.19957         0.103013     -0.088479     -0.701498
O	      6.35262      6.16434      5.94185        -0.003421     -0.091782      0.067675
O	      6.20485      4.16964      8.28990         0.692191     -0.023459      0.068177
O	      8.41573      6.33651      8.33910        -0.000322      0.049652     -0.025817
O	      2.12634      6.22269      6.06395         0.003324     -0.011287      0.108898
O	      4.19221      8.27419      6.12246         0.004058     -0.043367     -0.048727
O	      4.20859      6.08430      8.22740         0.023287     -0.373761     -0.020388
O	      6.39291      8.26276      8.29997        -0.694272     -0.047887      0.084980
O	      6.34226      6.22874     10.31214         0.038282      0.083965     -0.049912
O	      8.36946      8.27216     10.16660        -0.004048     -0.079006      0.980709
