# total energy = -215.57117085 eV
 
CRYSTAL
PRIMVEC
-0.016788 6.312741 6.116808 
6.335120 0.001327 6.097602 
4.219609 4.192615 0.004909 
PRIMCOORD
36 1
Li	      4.25535     10.43048      6.13527        -0.003152      0.007734     -0.055161
Li	      2.15729      8.37769      6.12228         0.015534      0.006184     -0.063760
Li	      6.24072      6.31644      4.11734        -0.055113      0.049948      0.141440
Li	      4.24071      4.23958      4.13982        -0.140253      0.042483      0.099948
Li	      4.15510      2.17670      6.07258        -0.054238     -0.041565      0.014495
Li	      6.18281      4.29054      6.06609        -0.055666      0.124581      0.005017
Li	      2.14906      6.27255      4.13095         0.092755     -0.068794      0.066947
Li	      4.21004      6.24161      6.03439        -0.005371     -0.041177     -0.019059
Li	      4.23575      4.20604      8.05080         0.044230     -0.000138     -0.061026
V	      6.38910      2.09516      4.19681         0.095794     -0.043320      0.167871
Cr	      4.18005      8.39401      4.12059        -0.141212     -0.076428      0.183959
Fe	      2.13496      6.35374      8.11969         0.021786     -0.056183     -0.433590
Fe	     10.47288      6.28570      8.16836        -0.124221      0.022188     -0.004541
Fe	      8.44832      4.18768      8.01799        -0.095764      0.017068     -0.060480
Fe	      2.21587      4.19997      6.05183         0.061692      0.243036     -0.069183
Co	      8.43114      4.21368      4.16296         0.162438     -0.139555     -0.510949
Co	      6.37657      6.30792      8.11358         0.005919     -0.050129     -0.853876
Cu	      4.20066      8.41393      8.12391        -0.170175      0.010109      0.019743
O	      1.95217      2.07950      2.01883         0.038330     -0.088034      0.027974
O	      4.17764      4.23489      2.06636         0.178056     -0.061001      0.048159
O	      4.38766      1.98836      3.99807        -0.172068     -0.453116      0.065497
O	      6.32004      4.06302      4.02461         1.039848      0.201238      0.264460
O	      6.31881      2.06815      5.97293         0.012520      0.017735      0.056593
O	      8.43984      4.19254      6.07957        -0.037234     -0.060885     -0.144992
O	      1.96111      4.17282      4.04753        -0.037784      0.045613     -0.214768
O	      4.15250      6.43592      4.02025         0.003385     -0.115721     -0.138998
O	      4.09919      4.21009      6.07344         0.330208     -0.036572      0.014129
O	      6.30155      6.40538      6.23329        -0.102449     -0.418531      0.021270
O	      6.36256      4.17223      8.16815        -0.000013     -0.006194      0.143376
O	      8.47410      6.18265      8.11111         0.196409      0.076072      0.072669
O	      2.11440      6.21667      6.20638        -0.049292      0.209211      0.153973
O	      4.33915      8.42259      6.13454        -0.002760     -0.044256     -0.063553
O	      4.17281      6.38049      8.30993        -0.102754      0.095142      0.392350
O	      6.42418      8.43534      8.25823        -0.094419      0.042706      0.183393
O	      6.35666      6.33081     10.07360        -0.962339      0.072514      0.584211
O	      8.41006      8.53318     10.22732         0.107371      0.518036     -0.033536
