# total energy = -216.13519263 eV
 
CRYSTAL
PRIMVEC
-0.013123 6.334873 6.276216 
6.084178 0.021651 6.241697 
4.072092 4.215907 -0.001317 
PRIMCOORD
36 1
Li	      2.07144      8.42802      6.27632        -0.018059     -0.024677     -0.003886
Li	      2.15064      6.42202      8.26579         0.079630      0.013382     -0.040563
Li	      3.98267      8.35658      8.31870        -0.000256     -0.045539      0.014121
Li	      8.15699     10.45409     10.40701         0.014784     -0.039778     -0.024105
Li	      8.05334      4.24100      8.28487        -0.032085      0.013676     -0.021937
Li	      8.11988      6.28471      6.31416        -0.034942      0.017391      0.006222
Li	     10.02505      8.49831     10.47089        -0.032681      0.001793      0.108121
Li	      4.01267      6.39707      6.32402         0.000673      0.012479      0.008445
Li	      8.14584      8.48367      8.41796         0.001943      0.032323      0.007311
V	      4.05870      4.19430      4.11009         0.032869     -0.004541     -0.002111
Cr	      2.05266      2.10523      4.16313         0.030659     -0.012506      0.070253
Fe	     10.01643      4.16679      6.26243         0.281876     -0.008239     -0.000819
Fe	      6.17743      8.43980     10.37984        -0.226649      0.035705     -0.069319
Fe	      6.05149      2.22497      8.28820        -0.058724     -0.005833      0.046772
Fe	      6.05682      8.49729      6.37905         0.192519     -0.070967      0.000964
Co	      6.14238      4.23346      6.24573        -0.052146      0.044306     -0.097602
Co	      6.01621      6.30531      8.32220        -0.073002      0.018375      0.032772
Ni	      8.10264      6.39549     10.44310         0.057806     -0.076863      0.034016
O	      1.94662      2.09975      2.20635         0.078221      0.057321     -0.046228
O	      4.05373      4.31488      2.21278        -0.044412      0.025875     -0.104245
O	      4.08017      2.25946      4.10998         0.012927     -0.011541     -0.016170
O	      6.07903      4.24851      4.26570         0.071716     -0.007152      0.061387
O	      6.06657      2.19188      6.24028         0.045162      0.003146      0.013778
O	      8.11059      4.23057      6.24485        -0.287182      0.057025      0.052341
O	      2.10048      4.14324      4.29216        -0.078795     -0.081943      0.012697
O	      4.09149      6.26015      4.10909         0.102627      0.017842     -0.010729
O	      4.12847      4.26301      6.03442        -0.011067     -0.010336      0.021450
O	      6.12704      6.25982      6.21881        -0.041398     -0.006095     -0.040352
O	      6.07215      4.22681      8.15478         0.012165      0.003651     -0.076696
O	      8.07039      6.33150      8.39682        -0.029731     -0.030094     -0.131801
O	      1.93189      6.24212      6.27378        -0.029239      0.147390      0.115099
O	      4.10577      8.52706      6.28640        -0.158966     -0.126048      0.018045
O	      4.21240      6.33704      8.34176         0.112146      0.012407     -0.004867
O	      6.12926      8.41712      8.34112         0.012055     -0.056773      0.036246
O	      6.06766      6.42914     10.48645        -0.116894     -0.023346      0.006473
O	      8.05986      8.43051     10.44356         0.186449      0.128184      0.024918
