# total energy = -217.63275300 eV
 
CRYSTAL
PRIMVEC
0.009088 6.288947 6.280251 
6.154653 -0.028450 6.317190 
4.101246 4.214808 -0.016389 
PRIMCOORD
36 1
Li	     10.12630      4.17019      6.21938        -0.015297     -0.073605      0.021035
Li	      8.20786      8.45533     12.39715         0.008615      0.087914      0.200238
Li	      8.28024     10.31637     10.56333        -0.065637      0.099589      0.130225
Li	      2.06935      4.21473      2.09715        -0.062732      0.059858     -0.081567
Li	      4.07416      4.16961      4.19037         0.005415      0.018604     -0.016363
Li	      8.25561      6.25543      6.33783        -0.078014     -0.127351      0.040382
Li	     10.12498      8.42903     10.49123         0.074593     -0.033198      0.009882
Li	      8.14117      6.41105     10.46279         0.054063     -0.157036      0.038203
Li	      8.23124      8.30110      8.55795         0.011779      0.018747     -0.162601
V	      6.13642      4.20833      2.14631        -0.038874     -0.073462     -0.366707
Cr	      2.14186      2.10612      4.17815        -0.015363      0.153878     -0.002016
Fe	     10.09678      6.32141      8.40599         0.137758      0.070043      0.014217
Fe	      2.10320      4.21119      6.18259         0.065160      0.047931      0.248921
Fe	      4.11078      6.31373      6.17179        -0.075902      0.002774      0.140894
Fe	      6.21135      6.18352      8.56922         0.036626     -0.292961     -0.475331
Co	      4.09869      2.13020      2.06329         0.058800      0.056815      0.056051
Co	      6.18615      8.28864     10.59491         0.132416     -0.103580     -0.210095
Co	      6.28342      4.12575      6.37271        -1.004670     -0.015954      0.073127
O	      2.11088      1.99950      2.16721        -0.064051     -0.037534     -0.013513
O	      4.20822      4.16626      2.05299        -0.008753      0.041682     -0.046141
O	      4.12030      2.12656      3.99901         0.194352     -0.013118      0.003956
O	      6.19405      4.24168      3.98649         0.073941     -0.061699      0.183645
O	      6.12184      2.12603      6.44243         0.164391      0.307759     -0.179862
O	      8.06651      4.21496      6.27831         0.317992     -0.137779      0.026293
O	      2.08589      4.08710      4.29397        -0.022833     -0.123480     -0.266507
O	      4.19996      6.30779      4.13920         0.016095     -0.016290     -0.042880
O	      4.16061      4.32329      6.28738         0.252209     -0.089203     -0.078513
O	      6.15632      6.33574      6.22950         0.151745     -0.194377      0.033633
O	      6.13431      4.17512      8.37936         0.033494      0.170619      0.112700
O	      8.18251      6.25626      8.41447        -0.118777      0.092331      0.044234
O	      2.12756      6.22818      6.47518         0.019154      0.001464     -0.057948
O	      4.16437      8.34971      6.39405         0.009210     -0.000103     -0.026784
O	      4.12957      6.46987      8.28079         0.021437     -0.022902      0.051382
O	      6.04629      8.43147      8.31389         0.022405      0.016155      0.040751
O	      6.13514      6.22211     10.42962        -0.015761      0.384650      0.520019
O	      8.10829      8.36224     10.48635        -0.274988     -0.057181      0.037040
