# total energy = -211.08397357 eV
 
CRYSTAL
PRIMVEC
0.036108 6.099189 6.316280 
6.339551 0.003602 6.348841 
4.235160 4.097242 -0.006427 
PRIMCOORD
36 1
Li	      4.28142      4.10728      0.06035         0.046829     -0.011002      0.022550
Li	      2.13030      6.10848      8.39464         0.003090     -0.016569     -0.072294
Li	      8.40878      4.13388      4.21197        -0.037608      0.031584      0.031075
Li	      6.40981      6.06139      4.23866         0.036438     -0.034096      0.029517
Li	      4.29447      4.05920      4.21778         0.063781     -0.019031     -0.005170
Li	      8.44076      6.11939      6.31608         0.013831     -0.023582     -0.038463
Li	      2.20641      4.08873      6.35463         0.091192      0.014745      0.049524
Li	      4.22013      6.06296      6.34939        -0.027525      0.001542      0.012660
Li	      6.35829      6.13269      8.38511         0.007204      0.061155     -0.023908
V	      0.15636      4.10051      4.31958        -0.078441      0.061462      0.021812
Cr	      6.34084      4.22610      6.30668        -0.029818     -0.021291     -0.130212
Fe	      2.10848      8.05570      6.33904         0.029355      0.147520     -0.042312
Fe	      4.23519      2.01621      2.20870         0.014612     -0.062027     -0.045193
Fe	      6.27256      2.09129      4.23160         0.001667     -0.134871      0.082994
Fe	      4.22347      4.14291      8.39624        -0.095122     -0.007716      0.100063
Ni	      2.15777      6.13337      4.21273        -0.013275     -0.036774      0.028687
Ni	      4.24670      6.06659      2.10027         0.094274     -0.085570     -0.104451
Ni	      8.48465      4.12262      8.39851        -0.027339      0.001600      0.028498
O	      2.17027      2.05615      2.02234        -0.022801     -0.139213      0.107158
O	      4.17780      4.00414      2.08617         0.156308     -0.015605      0.020132
O	      4.32372      2.01730      4.15833        -0.123161      0.051825      0.078982
O	      6.32634      4.04480      4.37311        -0.029409      0.174495      0.096494
O	      6.39406      2.09567      6.28205        -0.059912     -0.003970     -0.013874
O	      8.26544      4.00263      6.37634        -0.019475      0.056005     -0.110164
O	      1.94660      4.07700      4.20107         0.097395     -0.157582      0.066762
O	      4.22463      6.34557      4.14588         0.113983      0.029014      0.100607
O	      4.42012      4.04856      6.43032        -0.007671      0.011453     -0.108575
O	      6.39756      6.00375      6.30009        -0.051506      0.023431      0.047149
O	      6.31976      4.06626      8.50928         0.002650      0.159569     -0.052067
O	      8.54430      6.18050      8.52319        -0.130164      0.038269     -0.106845
O	      2.14566      6.15963      6.23742         0.024221     -0.218219      0.064245
O	      4.20312      8.16675      6.12978         0.056825     -0.014225      0.002139
O	      4.24460      6.13287      8.39904         0.035258      0.028920      0.004503
O	      6.39783      8.14987      8.53958        -0.031704      0.033056     -0.108880
O	      6.37718      5.97438     10.55594        -0.037954     -0.030012     -0.038790
O	      8.54174      8.18772     10.52746        -0.066029      0.105710      0.005649
