# total energy = -217.78425164 eV
 
CRYSTAL
PRIMVEC
-0.005972 6.234418 6.246760 
6.208674 -0.023101 6.263801 
4.143728 4.172180 -0.019862 
PRIMCOORD
36 1
Li	      8.35360      8.25391     12.37355         0.038808     -0.058553      0.035350
Li	      4.08774      8.27520      8.22722         0.030603     -0.032687     -0.139295
Li	      6.36324      8.27353     10.43104         0.022595      0.011959     -0.017486
Li	      2.03710      4.16810      2.15612        -0.078999      0.111915     -0.049622
Li	     10.23892      8.30093     10.45567         0.028176      0.043147     -0.019439
Li	      8.34130      6.31707     10.43170        -0.031014      0.059317     -0.009481
Li	      2.01035      4.17191      6.16837        -0.040304      0.037028      0.034946
Li	      4.08130      6.38200      6.17615        -0.045889      0.070402      0.018314
Li	      8.33378      8.33138      8.49849         0.027545     -0.012344      0.002239
V	      6.25996     10.25437      8.23794         0.011451     -0.104574     -0.139182
Cr	      8.27817      6.25254      6.25757         0.030317     -0.075933      0.069171
Fe	      4.16463     10.23330      6.20157         0.053798     -0.042480     -0.048742
Fe	      2.01749      2.12088      4.13896        -0.071250      0.125406      0.016557
Fe	      4.07976      4.13481      4.10376        -0.084118      0.080054     -0.053260
Fe	      6.20818      4.11787      6.31407         0.080373     -0.013613      0.073691
Fe	      6.21948      6.27530      8.40873        -0.064803      0.066555      0.014694
Co	      4.14909      6.19786     10.41295         0.071516     -0.288919     -0.011314
Cu	     10.29044      6.26591      8.36264        -0.068478      0.067863      0.063896
O	      1.98998      1.85031      2.17734         0.092978     -0.124224     -0.080496
O	      4.23885      4.02566      2.07819         0.064870     -0.144161     -0.011481
O	      4.07203      2.02385      4.25342        -0.010760      0.011096      0.017618
O	      6.27219      4.17104      4.15666        -0.055562      0.042577      0.021980
O	      6.13050      2.07784      6.38689         0.021751     -0.039318     -0.140159
O	      8.27987      4.22177      6.12597        -0.027277      0.026353      0.035947
O	      2.14527      4.06547      4.12435        -0.041250     -0.012899     -0.033440
O	      4.15863      6.14969      4.08848         0.027896     -0.031001      0.065601
O	      4.22873      4.07633      6.10636         0.022898      0.009878      0.043090
O	      6.24941      6.19621      6.25446        -0.013456     -0.039188     -0.071732
O	      6.23868      4.31280      8.24436         0.014171      0.067282      0.035976
O	      8.22735      6.28426      8.27140        -0.024771     -0.019366     -0.000707
O	      2.01839      6.24476      6.35312         0.043534     -0.066624      0.052020
O	      4.14390      8.37722      6.21299        -0.009628     -0.016265      0.018860
O	      4.11313      6.26056      8.45531        -0.011023     -0.012233      0.072821
O	      6.24657      8.42391      8.32710         0.019197      0.023309     -0.011709
O	      6.09372      6.28039     10.40656         0.005892      0.057313      0.129828
O	      8.28036      8.47243     10.42741        -0.029788      0.222928      0.014946
