# total energy = -220.02226205 eV
 
CRYSTAL
PRIMVEC
0.014404 6.162417 6.138632 
6.416839 -0.005833 6.158047 
4.279006 4.122411 -0.004823 
PRIMCOORD
36 1
Li	      4.24286     10.20012      6.12652        -0.047457     -0.041100      0.026817
Li	      2.23506      8.23502      6.13189         0.029200      0.024206     -0.000839
Li	      6.47016      8.16797     10.24958         0.038147     -0.028490      0.051931
Li	      2.13767      4.10166      2.07999        -0.029739      0.024990     -0.039845
Li	      2.21441      2.20535      4.05635         0.019453      0.076068      0.013356
Li	      4.18051      4.10026      4.08685        -0.034930      0.025160     -0.019145
Li	      4.30338      8.25981      4.14008         0.011612     -0.001310      0.057086
Li	      2.08314      4.13783      6.09452        -0.054863      0.025546      0.005196
Li	      8.57418      8.19913      8.22197         0.018668      0.027493     -0.004218
V	      6.35221      4.07203      2.11842         0.056631      0.040318     -0.116287
Cr	      8.51715      6.15743     10.27147         0.082353      0.074414      0.069307
Fe	      0.06058      2.09284      2.07923        -0.168474      0.051368      0.026797
Fe	      4.29575      2.08783      6.01534         0.001840     -0.024096      0.107143
Fe	      6.44305      4.09419      6.11585         0.056530     -0.049879     -0.140654
Fe	      4.28004      6.23099      6.09730        -0.011842     -0.171916      0.075224
Fe	      6.42034      6.22536      8.23449         0.028325     -0.139712      0.008892
Co	      4.24044      2.08693      2.07723        -0.054649      0.028995      0.017600
Co	      8.62098     10.14320     10.23970         0.057477     -0.003650      0.059791
O	      2.05442      1.95322      2.07500         0.018386      0.007721      0.052160
O	      4.43908      4.18507      2.03477         0.006244      0.333621     -0.010761
O	      4.25710      1.99789      4.07409        -0.022767      0.002403      0.498336
O	      6.45588      4.07153      3.96149         0.088256      0.001545      0.056366
O	      6.30676      2.09812      6.22029         0.005834      0.007742     -0.027746
O	      8.47366      4.19184      6.10371        -0.109896     -0.027893      0.135696
O	      2.15194      4.31470      4.10246         0.033095      0.035847     -0.021070
O	      4.13195      6.21015      4.09456        -0.086425      0.001215     -0.093683
O	      4.41652      4.10967      6.08488         0.020745      0.071880      0.006645
O	      6.43133      6.14357      6.17686        -0.010466      0.034448     -0.002870
O	      6.44331      4.11902      8.13086         0.016350      0.052486      0.021064
O	      8.53577      6.18541      8.23518         0.001234     -0.018231     -0.018094
O	      2.25560      6.14128      6.23275        -0.009306     -0.007785      0.023881
O	      4.28625      8.14906      6.26631        -0.003275      0.086703     -0.728653
O	      4.28935      6.10642      8.17375         0.075224     -0.292787     -0.128603
O	      6.37931      8.23224      8.17775         0.083557     -0.089522      0.087174
O	      6.56003      6.15679     10.20776        -0.112540      0.025510     -0.050125
O	      8.56456      8.09323     10.28430         0.007470     -0.163309      0.002135
