# total energy = -215.79287593 eV
 
CRYSTAL
PRIMVEC
0.030762 6.325145 6.244543 
6.336245 0.023522 6.251875 
4.231766 4.229392 0.007827 
PRIMCOORD
36 1
Li	      0.08064      6.27057      6.21494        -0.050059      0.027666     -0.053247
Li	      2.27002      8.34189      6.24885         0.062018     -0.052931     -0.009341
Li	      4.13040      2.14670      1.98517        -0.058302      0.010960     -0.029017
Li	      8.48114     10.51778     10.40855         0.023059      0.007141      0.017646
Li	      4.30083      6.31404      2.13651        -0.007565     -0.045164     -0.023580
Li	      6.26287      6.29826      4.13702         0.054528     -0.023699      0.035240
Li	      6.34527      4.24143      6.22378         0.037948     -0.005954     -0.010921
Li	      4.18859      8.40927      4.23652        -0.052228      0.021320     -0.008857
Li	      2.18769      6.37033      4.25891        -0.040234      0.046517      0.024463
V	      8.50885      6.21296      6.19094         0.044025     -0.239848     -0.099551
Cr	      4.25285      4.30009      4.19768        -0.009326     -0.031994     -0.064006
Fe	      6.47193      8.46102     10.42639        -0.093453      0.004863      0.085304
Fe	      2.15467      4.04363      2.17774        -0.088320      0.191606     -0.097064
Fe	      1.99456      4.31781      6.18107         0.138759     -0.118031      0.012254
Fe	      4.33885      4.23653      8.35602         0.041098     -0.045934      0.040152
Fe	      6.34568      6.33225      8.39830         0.022671      0.065377     -0.045635
Cu	      4.18560      6.42449      6.19038         0.023242      0.042732     -0.047202
Ni	      2.05711      0.09325      2.06415        -0.046597      0.086083      0.033430
O	      2.10007      2.17400      2.04443        -0.042436     -0.198759      0.028868
O	      4.14855      4.23994      2.20433         0.001922     -0.028192      0.082233
O	      4.24802      2.17131      4.34354         0.008990      0.087118     -0.000427
O	      6.27268      4.14336      4.12255        -0.050529      0.080798      0.119137
O	      6.11678      2.15330      6.19969         0.021660      0.038291      0.075850
O	      8.43403      4.42657      6.33614         0.031110      0.098840     -0.007371
O	      2.21981      4.24363      4.16764         0.038034      0.023015      0.062035
O	      4.26767      6.24287      4.28294        -0.011823      0.052542     -0.115110
O	      4.21079      4.11159      6.27030        -0.029166     -0.074659      0.014417
O	      6.59427      6.43157      6.31529         0.021208      0.086569      0.036136
O	      6.37120      4.32993      8.35140         0.048667     -0.060490      0.015759
O	      8.44745      6.39903      8.19529         0.004105      0.000671      0.011412
O	      2.07698      6.25398      6.30343        -0.080679      0.075719     -0.126842
O	      4.33638      8.44277      6.23004        -0.097922     -0.070540     -0.027938
O	      4.31038      6.25951      8.18410         0.039568      0.018025      0.021809
O	      6.45207      8.43476      8.32767         0.004178     -0.021081     -0.060832
O	      6.32514      6.49624     10.31870         0.002504     -0.051844      0.086428
O	      8.42598      8.48769     10.33885         0.089347      0.003267      0.024369
