# total energy = -214.74650595 eV
 
CRYSTAL
PRIMVEC
0.041538 6.296075 6.175597 
6.324033 0.043865 6.173374 
4.237250 4.217042 0.008172 
PRIMCOORD
36 1
Li	      2.10183      2.10473      0.08582        -0.164238      0.126412      0.127023
Li	      2.15425      0.12621      2.03400        -0.035034      0.351695      0.099756
Li	      4.07861      2.12581      2.06267        -0.246786      0.074087      0.093066
Li	      0.11750      2.19484      2.10577         0.106751      0.049897     -0.036199
Li	      2.04082      2.12908      4.00849        -0.024861     -0.029701     -0.200346
Li	      6.35570      4.19596      6.23570         0.089598     -0.115355      0.106971
Li	      4.20825      8.26107      4.08729        -0.088182     -0.058931     -0.176705
Li	      8.57263      6.42283     10.25899         0.004945      0.081332     -0.157839
Li	      4.30687      4.21745      8.26599         0.173054     -0.089184      0.035978
V	      6.33273      8.45797      6.18198        -0.360956      0.235793     -0.009306
Cr	      4.25146      4.19907      0.04283        -0.327570      0.306467      0.203586
Fe	      8.42533     10.50269     10.24136        -0.013092      0.062046      0.031392
Fe	      6.42580      8.45884     10.24260         0.020778     -0.023412      0.064762
Fe	      4.26238      4.33901      4.05366         0.237625     -0.154893     -0.599861
Fe	      4.25635      2.14340      6.19452         0.185169     -0.284577      0.346008
Fe	      6.35587      6.22732      8.25073         0.320374     -0.515239      0.278261
Ni	      2.09796      4.15429      2.08177        -0.008221      0.043280      0.028166
Ni	      4.21169      6.35751      6.19353         0.072879     -0.123431      0.085766
O	      2.10582      2.28071      2.04978         0.066195     -1.243942     -0.054703
O	      4.08124      4.20347      2.05861         0.853952      0.063627     -0.002613
O	      4.30461      2.14186      4.15529         0.002725      0.096352      0.017906
O	      6.33846      4.17198      4.07380        -0.044778     -0.030236      0.108655
O	      6.26196      2.04837      6.12143         0.047416     -0.061048     -0.112978
O	      8.54559      4.32129      6.09798         0.060643     -0.002626     -0.297012
O	      2.23594      4.19676      4.30163        -0.097210      0.022852      0.786188
O	      4.23804      6.23634      4.19354        -0.016929      0.121765      0.144041
O	      4.18036      4.18497      6.15002        -0.507768      0.116064      0.027717
O	      6.38259      6.41748      6.22731        -0.041917      0.574784     -0.205116
O	      6.47842      4.28307      8.24850        -0.958476      0.188263     -0.029487
O	      8.38740      6.18113      8.19673        -0.072492      0.917484     -0.169417
O	      2.08970      6.20180      6.24747         0.028660     -0.762710     -0.110508
O	      4.39722      8.45787      6.15489         0.785058      0.007126     -0.000486
O	      4.34183      6.32527      8.25887        -0.067810      0.050066     -0.137441
O	      6.42276      8.33007      8.13755        -0.025453      0.102177     -0.468615
O	      6.30370      6.40447     10.30558         0.024935     -0.001986      0.106555
O	      8.39085      8.52835     10.29539         0.021019     -0.094300      0.076834
