# total energy = -102.85520302 eV
 
CRYSTAL
PRIMVEC
4.045064 -0.000189 0.000198 
2.022811 4.331369 -6.425603 
2.022398 4.252292 2.092050 
PRIMCOORD
16 1
Li	      6.06797      4.29531      1.93875        -0.002287      0.008027      0.000596
Li	      2.02274      2.36396     -0.21224        -0.002061     -0.025093     -0.012092
Li	      4.04479      1.93491     -1.95083         0.002591      0.028819      0.008133
Li	      2.02201      4.25581     -2.00961         0.002092     -0.009796     -0.001446
Ti	      4.04448      6.41312     -2.00427         0.002329     -0.292798      0.402382
Ti	      6.06842      6.46970     -4.49296        -0.002387      0.276588     -0.370933
Ni	      4.04496      4.27542     -0.03514         0.000454      0.006077     -0.004495
Ni	      4.04523      4.31518     -4.29437        -0.000892     -0.000784      0.002739
O	      4.04519      4.55750     -2.17571        -0.001734      0.309779      0.023206
O	      6.06764      6.51783     -2.27582         0.003279     -0.144708     -0.004076
O	      4.04507      2.11412      0.09828         0.000606     -0.077884      0.350552
O	      6.06754      4.27557     -0.03544        -0.000624     -0.002050      0.003736
O	      2.02254      2.18493     -2.26025         0.001781      0.073265     -0.377511
O	      6.06769      4.31524     -4.29400         0.001153     -0.002207     -0.002429
O	      4.04527      6.36470     -4.22032        -0.004301      0.146216      0.004517
O	      6.06771      8.32436     -4.32066         0.000001     -0.293451     -0.022879
