# total energy = -221.14181500 eV
 
CRYSTAL
PRIMVEC
0.009599 6.290225 6.289986 
6.147820 0.023905 6.275813 
4.115532 4.200592 -0.000602 
PRIMCOORD
36 1
Li	      8.27075      8.39757     12.40930         0.017309      0.076073     -0.035596
Li	      4.10695      2.11122      2.16530         0.021421      0.004370      0.030612
Li	      4.07646      0.13084      4.18547         0.000721      0.056711      0.094322
Li	      6.04965      2.09648      4.20073        -0.033924      0.001143      0.024941
Li	      4.12883      6.26521      2.15636        -0.018762      0.005132      0.015817
Li	      4.11720      4.17946      4.22594        -0.058957     -0.038764     -0.009154
Li	      4.11260      2.11360      6.12504        -0.000125     -0.087247     -0.048743
Li	      4.07986      8.33459      4.29024         0.001330     -0.017498      0.038634
Li	      4.09669      6.35983      6.22075        -0.000831      0.035789     -0.032802
V	      2.12114      4.14193      2.09168         0.261407     -0.153352      0.394066
Cr	      6.13246      6.33232      8.41350        -0.035080      0.094016      0.000414
Fe	      6.12034      6.35191     12.48209        -0.292464      0.071814     -0.202215
Fe	      2.02315      0.10182      2.13274         0.249593     -0.042513      0.012185
Fe	      6.16967      6.29247      4.24653        -0.030155      0.223742     -0.101500
Fe	      6.11499      4.01366      6.20155         0.311892      0.108865     -0.095444
Fe	      2.03874      4.21800      6.23494         0.069377     -0.060949     -0.189880
Fe	      8.24863      8.41567      8.45074        -0.014131     -0.068908      0.008010
Co	      2.14118      6.30227      4.20392         0.040240      0.003880     -0.058922
O	      2.04998      2.12599      2.17254        -0.112346      0.059396     -0.107523
O	      4.15718      4.23113      1.99128        -0.484639      0.021179      0.069238
O	      3.94919      2.11765      4.19534         0.147433      0.027292     -0.074251
O	      6.13654      4.25236      4.17624        -0.036060     -0.082469     -0.038279
O	      6.15047      2.10867      6.24629        -0.005004     -0.126481      0.051987
O	      8.19095      4.20400      6.37037        -0.001542     -0.001589     -0.665089
O	      2.08355      4.26031      4.17731         0.005861      0.110972      0.420557
O	      4.10319      6.30692      4.20186        -0.052176     -0.032286     -0.010377
O	      4.11976      4.16613      6.40305        -0.018820      0.014369      0.090498
O	      6.13663      6.35017      6.34074        -0.035297     -0.047846      0.147744
O	      6.18883      4.31298      8.26154         0.270462     -0.001978      0.118247
O	      8.16557      6.26175      8.52249        -0.069503     -0.155390      0.088543
O	      2.05539      6.27582      6.26353         0.016863      0.012061      0.112456
O	      4.21068      8.53869      6.28089        -0.061227     -0.076484      0.031797
O	      4.08863      6.22594      8.43501         0.005185      0.055361     -0.030732
O	      6.21167      8.40237      8.32088        -0.029724      0.039989      0.042149
O	      6.28902      6.32409     10.44082        -0.027907      0.013481     -0.113165
O	      8.26141      8.22673     10.37107        -0.000420     -0.041882      0.021455
