# total energy = -218.25952622 eV
 
CRYSTAL
PRIMVEC
0.016112 6.350065 6.111513 
6.358325 0.012602 6.115188 
4.245196 4.242020 0.002184 
PRIMCOORD
36 1
Li	      4.27229      4.20757      0.16959         0.035534     -0.053771     -0.008497
Li	      2.14591      2.10401      0.15768         0.004314      0.017442      0.060877
Li	      2.03895      0.06634      1.92297        -0.065191      0.054363      0.000556
Li	      4.18519      2.20561      1.93998        -0.047610      0.060163     -0.045620
Li	      6.34389      2.05924      8.05991         0.002289     -0.038760     -0.055255
Li	      8.56034      4.27421      8.05167         0.051232      0.016992     -0.058758
Li	      8.47749      6.33404      6.25586         0.010843     -0.047747     -0.004092
Li	      6.33953      8.51790      6.19514        -0.057051      0.034651      0.048149
Li	      6.45671      6.37040      8.08008         0.029372      0.016017     -0.004278
V	      6.33501      8.44751     10.17798         0.061399     -0.022486      0.066181
Cr	      8.48719      6.36300     10.17173         0.013904     -0.059227      0.083177
Fe	      4.26182      6.35449     10.18104        -0.001936     -0.031122     -0.029133
Fe	      2.13276      2.15063      3.96573        -0.001320      0.026544      0.092108
Fe	      4.22003      4.22956      3.95425        -0.034251      0.029071      0.104404
Fe	      6.40858      4.26763      6.23505         0.115552     -0.130019     -0.035794
Fe	      0.03940      4.25353      4.07558        -0.003544      0.001384     -0.015751
Fe	      4.19582      6.39264      6.24634         0.033241      0.126037     -0.013442
Ni	      8.49231      8.42439      8.09702        -0.074511      0.016116     -0.022199
O	      2.11761      2.11645      2.15729         0.020783      0.008785     -0.255858
O	      4.25521      4.24201      2.12554        -0.009752     -0.004050     -0.198543
O	      4.28823      2.11077      4.07764        -0.065450     -0.008253      0.014987
O	      6.37256      4.20067      4.10308        -0.034041      0.030864     -0.018221
O	      6.37469      2.22452      5.92552        -0.040678     -0.031955      0.079712
O	      8.38903      4.25068      5.99506         0.043291      0.045011      0.114421
O	      2.12412      4.27237      4.07900        -0.020030      0.008744      0.010992
O	      4.20209      6.37628      4.10023         0.016717     -0.012982     -0.018401
O	      4.33917      4.31054      6.02760        -0.058638     -0.053431     -0.062791
O	      6.28117      6.28407      5.99183         0.060797      0.079887      0.069663
O	      6.33210      4.24698      8.19697         0.097836      0.034559      0.045048
O	      8.47279      6.41220      8.21740        -0.016381     -0.129500      0.015406
O	      2.24032      6.33307      6.05943        -0.102445     -0.012803     -0.048477
O	      4.27724      8.39557      6.00718         0.015258      0.029721      0.103884
O	      4.26850      6.29520      8.21356         0.042227      0.070199      0.010424
O	      6.41624      8.47688      8.37303        -0.052940     -0.048154     -0.141343
O	      6.38566      6.38504     10.24254         0.030135     -0.001292     -0.014391
O	      8.48472      8.45731     10.17686         0.001045     -0.020998      0.130853
