# total energy = -222.95813477 eV
 
CRYSTAL
PRIMVEC
-0.020981 6.325594 6.230164 
6.384580 -0.015079 6.224291 
4.248501 4.204907 -0.001934 
PRIMCOORD
36 1
Li	      0.03483      0.08400      0.10565         0.041946     -0.006768      0.028376
Li	      2.04511      2.07996      0.14059        -0.044124      0.022920      0.003857
Li	      1.98523      0.14115      2.07468        -0.057688      0.049128      0.014135
Li	      4.15285      2.19420      2.10015        -0.039984      0.054794     -0.022500
Li	      0.10285      2.00127      2.03455         0.034739     -0.022035      0.002295
Li	      2.12638      2.07797      4.04001        -0.009611      0.000499     -0.017592
Li	      4.30476      4.17437      4.00675         0.092343     -0.041144      0.032127
Li	      4.29548      2.05719      6.22828         0.047223     -0.024711     -0.019408
Li	      6.38855      6.30332      8.28605         0.013611      0.003400      0.001929
V	      6.39205      4.21629      6.23334        -0.069698     -0.246938      0.092867
Cr	      6.36984      4.21759     10.36794         0.086794     -0.105797     -0.066504
Fe	      4.24275      0.08394      4.10212        -0.180029     -0.066959      0.151715
Fe	      6.29705      2.08776      4.19219        -0.066754      0.169108     -0.472223
Fe	      2.30450      4.07921      2.00864        -0.100049      0.129983     -0.047446
Fe	      2.14663      6.28132      4.14083         0.004620     -0.004621      0.044267
Fe	      6.34742      8.36121      6.30928         0.037004      0.169094     -0.098804
Fe	      4.22090      6.35873      6.29529        -0.065533      0.009797      0.034128
Fe	      8.48278      8.34877      8.29121         0.062477      0.034487     -0.114714
O	      2.11926      2.20059      2.07905        -0.032187     -0.086973     -0.012814
O	      4.17614      4.22155      2.07036         0.076874      0.033688     -0.022557
O	      4.34173      2.00893      4.10919         0.070666      0.058975      0.034766
O	      6.45366      4.14176      4.21947         0.084410     -0.063986     -0.338339
O	      6.38490      2.13771      6.08605         0.069236      0.555026      0.516740
O	      8.38093      4.23336      6.20776         0.184783      0.037844     -0.139943
O	      2.00511      4.27579      4.15870        -0.074943      0.012582      0.000994
O	      4.14264      6.41917      4.24596         0.003993      0.123187     -0.061619
O	      4.26667      4.24796      6.26957        -0.233479      0.022146     -0.048278
O	      6.26199      6.36735      6.21524         0.119450     -0.550375     -0.005347
O	      6.31412      4.21065      8.29952        -0.029848     -0.028333      0.314614
O	      8.47737      6.32123      8.40424        -0.010806     -0.035395     -0.092484
O	      2.19031      6.21182      6.16334        -0.013118     -0.001517      0.072953
O	      4.33796      8.36425      6.15734        -0.060263      0.015948     -0.012900
O	      4.23483      6.21123      8.32742         0.026705     -0.048057     -0.035555
O	      6.47755      8.38451      8.29277        -0.015407     -0.031710      0.202648
O	      6.34159      6.29453     10.41370         0.072309     -0.081971     -0.024044
O	      8.54362      8.41810     10.33393        -0.025660     -0.055318      0.104659
