# total energy = -227.65735314 eV
 
CRYSTAL
PRIMVEC
0.009279 6.381807 6.250431 
6.437390 0.035886 6.223046 
4.307466 4.253138 0.007538 
PRIMCOORD
36 1
Li	      6.42150      4.26243      2.09934        -0.003738      0.015790     -0.056920
Li	      8.58375      4.22933      4.20331        -0.036342     -0.021021     -0.014345
Li	      6.41508      2.39384      8.23192        -0.021261      0.021768      0.033378
Li	      8.37298      4.27306      8.23027        -0.020140      0.000128     -0.003188
Li	      8.66960      6.34437      6.32685         0.002084      0.002264      0.021968
Li	      6.50397      4.23424      6.41068         0.026485      0.044737     -0.041805
Li	      6.46272      4.31066     10.19521         0.094745     -0.033515      0.053734
Li	      4.55311      4.29008      8.30457         0.030193      0.009566      0.006072
Li	      6.45148      6.17703      8.32158         0.012511      0.030535     -0.015850
Mn	      8.54897      2.21416      6.25934         0.012701     -0.164941     -0.021815
Mn	      6.44479      2.18650      4.14720        -0.012098     -0.044992     -0.124930
Mn	      2.15762      2.06480      4.09185        -0.077050      0.011649      0.105651
Mn	      4.30505      4.28057      4.10041        -0.030056      0.046894      0.030808
V	      8.56599      6.44817     10.23619         0.048129      0.015137      0.104259
V	      4.33317      6.36341      6.35636         0.004243     -0.014652     -0.199752
Fe	      4.30431      2.20929      2.07130         0.015397     -0.236985     -0.081997
Fe	      6.48075      8.48085      6.33280         0.003759      0.039045     -0.009898
Cu	     10.60807      4.39725      6.28991        -0.058303      0.013307     -0.027291
O	      6.44920      4.28796      8.31876         0.036707     -0.028168      0.011328
O	      2.27569      2.08756      2.04777        -0.035028      0.025718      0.008264
O	      4.29679      4.17479      2.00562        -0.033777      0.171347      0.261115
O	      4.35726      2.08547      4.09244         0.005209      0.025988      0.020345
O	      6.41207      4.15919      4.11473        -0.018025     -0.015256     -0.001000
O	      6.42970      2.20557      6.08856        -0.032808      0.006778     -0.030938
O	      8.63103      4.07554      6.20397        -0.049719      0.110117      0.002999
O	      2.14898      4.40416      4.30627         0.112723     -0.022392     -0.064688
O	      4.22331      6.41942      4.33006        -0.039530     -0.037616     -0.045457
O	      4.13899      4.39113      6.29156         0.102907     -0.149722     -0.126127
O	      6.33668      6.47217      6.17276         0.100914     -0.048726      0.008008
O	      8.63956      6.40016      8.50295         0.014035      0.023970     -0.155319
O	      2.30196      6.47340      6.17416        -0.016162     -0.015595     -0.004069
O	      4.42193      8.39583      6.29858         0.020520      0.040537      0.012694
O	      4.31113      6.44388      8.14113         0.005681      0.040204      0.292296
O	      6.34977      8.51854      8.34438        -0.019854      0.040014      0.187178
O	      6.61420      6.55874     10.48307        -0.040649      0.068416     -0.108013
O	      8.49135      8.45020     10.45406        -0.104404      0.029671     -0.026694
