# total energy = -228.46606052 eV
 
CRYSTAL
PRIMVEC
0.015419 6.289269 6.436981 
6.239587 0.024100 6.428545 
4.164381 4.191746 0.011903 
PRIMCOORD
36 1
Li	      4.16540      4.15533      0.23735        -0.007020     -0.029626     -0.024099
Li	      2.16247      2.04783      0.14095         0.059696     -0.015782     -0.011181
Li	      2.02848      0.15827      2.10046        -0.006624     -0.059857     -0.016477
Li	      4.05112      2.14698      2.08348         0.045108      0.052288     -0.045034
Li	      2.15467      4.14316      2.16073        -0.041736      0.037675     -0.010989
Li	      2.05039      2.19300      4.18124        -0.014377      0.033290      0.012590
Li	      4.14502      4.22155      4.19165        -0.012201      0.041273      0.020524
Li	      4.19607      8.35733      4.42772         0.025110     -0.018833      0.037141
Li	      8.32191      8.35060      8.56670        -0.008853      0.004625     -0.017493
Mn	      6.26744      8.40874     10.67043         0.021139     -0.000424     -0.092625
Mn	      0.09610      2.04861      2.16710         0.077190     -0.062376      0.038613
Mn	      4.18221      2.09368      6.40161        -0.058121     -0.015880      0.014293
Mn	      2.12480      6.32279      4.35037         0.028786     -0.025479      0.008371
Mn	      2.03392      4.29370      6.44092         0.011239     -0.082870     -0.027899
V	      6.26147      4.16800      6.40948        -0.100693      0.040300      0.080388
V	      6.12116      6.26504      8.53628         0.107860     -0.038080     -0.093717
Co	      4.16837      6.32003      6.40523        -0.052096      0.024024      0.296282
Ni	      8.35156     10.43102     10.77212         0.097889     -0.042080     -0.072734
O	      1.94823      2.14908      2.23753        -0.129934     -0.031541     -0.077951
O	      4.17764      4.38692      2.18208        -0.013123      0.158256     -0.004448
O	      4.28845      2.03828      4.41227         0.057258      0.089551      0.050169
O	      6.28114      4.04428      4.40057        -0.048538     -0.096030     -0.084724
O	      6.28869      2.13655      6.58338         0.064016     -0.126146      0.284677
O	      8.23632      4.28165      6.36871         0.114717      0.046780      0.126730
O	      2.06630      4.39592      4.48959         0.018176      0.019180     -0.024303
O	      4.07801      6.35538      4.12625        -0.069071      0.041821     -0.460789
O	      4.19787      4.18816      6.40014        -0.042945     -0.111654      0.023664
O	      6.17663      6.23312      6.50519        -0.057746      0.005036      0.024483
O	      6.23858      4.21545      8.41040         0.038078     -0.036994      0.096874
O	      8.26224      6.27694      8.42840         0.036978     -0.000903     -0.051816
O	      2.23217      6.34725      6.46449        -0.047943      0.047325     -0.035434
O	      4.24711      8.29976      6.47567         0.023228      0.132550     -0.015809
O	      4.33728      6.21573      8.68875        -0.071681      0.094924     -0.009083
O	      6.24086      8.21548      8.43032        -0.000660      0.020873      0.044781
O	      6.32942      6.40087     10.53679         0.010184      0.009605      0.036353
O	      8.22309      8.32811     10.68080        -0.053291     -0.104821     -0.019325
