# total energy = -231.77352601 eV
 
CRYSTAL
PRIMVEC
0.006452 6.409179 6.083500 
6.440881 0.009072 6.079825 
4.292610 4.269648 0.007402 
PRIMCOORD
36 1
Li	      6.42919      4.22652      2.13052         0.030684     -0.047975      0.001310
Li	      8.54298      4.27486      4.05662        -0.066007      0.033736     -0.023286
Li	      6.46749      2.15681      4.09240        -0.007912      0.067092     -0.067909
Li	     10.71178      6.41672      8.11004        -0.004569     -0.021373      0.096865
Li	      4.44699      4.27183      4.04404         0.018081     -0.001223     -0.056921
Li	      4.43221      2.15735      6.00329        -0.024487      0.038410     -0.032108
Li	      6.40843      4.13610      6.00884         0.009888      0.005383     -0.017621
Li	     10.65418      8.59622     10.13205         0.015435     -0.030335      0.027621
Li	      8.51168      6.52394     10.12575         0.007167     -0.012786      0.038883
Mn	      8.44366      2.11683      5.99893         0.284310      0.102422     -0.009599
Mn	      4.26684      2.15070      2.07488        -0.007198     -0.046134      0.141296
Mn	      6.43730      6.27594      4.07895        -0.003441     -0.130161      0.000179
Mn	      4.29841      6.38928      6.06806         0.180280      0.061535      0.048116
Mn	      6.49068      6.41856      8.21112        -0.211082      0.201096      0.053406
V	      8.55306      4.35325      7.99842         0.189353     -0.033894     -0.120542
V	      2.22068      4.31824      6.01590         0.164049     -0.159869      0.191974
Co	      6.44301      6.47437     12.10457        -0.022864      0.300938     -0.439173
Co	      8.67798      8.47435      8.21706         0.066241      0.119562     -0.051130
O	      2.06955      2.26037      1.89949        -0.040587      0.094622     -0.044266
O	      4.13734      4.15283      1.98236        -0.275395     -0.153670      0.449519
O	      4.12471      2.12496      3.95183        -0.011322      0.031340      0.024376
O	      6.43504      4.40819      4.06587        -0.001451      0.028460      0.000055
O	      6.52571      2.11730      6.05500        -0.158763     -0.139481      0.079075
O	      8.61741      4.31714      6.19607        -0.249789     -0.060394      0.230051
O	      2.13725      4.10414      4.15252        -0.002184      0.036403     -0.121560
O	      4.47153      6.36680      4.19508         0.015614      0.013052     -0.051449
O	      4.18490      4.36859      6.15844        -0.243949     -0.110043      0.044772
O	      6.48889      6.55902      6.23058        -0.042754      0.047372     -0.117198
O	      6.57067      4.37448      8.12351         0.016218      0.044622      0.066284
O	      8.63616      6.28340      8.18062         0.006436      0.011591      0.036132
O	      2.12876      6.25897      6.04577         0.200888      0.029237     -0.011395
O	      4.31036      8.49747      6.16403         0.040912      0.154969     -0.076674
O	      4.30048      6.51086      8.01157        -0.000315     -0.101675      0.046057
O	      6.46172      8.52832      7.98044         0.051385     -0.069689     -0.054510
O	      6.41120      6.46195     10.10070         0.165398     -0.157241     -0.187719
O	      8.61937      8.56885     10.19136        -0.088269     -0.145898     -0.092914
