# total energy = -226.44462581 eV
 
CRYSTAL
PRIMVEC
0.002556 6.166652 6.468736 
6.192244 -0.011203 6.481765 
4.113305 4.105005 0.007638 
PRIMCOORD
36 1
Li	      6.12956      4.09417      2.19176         0.009872      0.022743      0.043075
Li	      4.14338      6.11186     10.70084         0.011423      0.033572      0.011136
Li	      8.23413      4.09154      8.64778        -0.001947     -0.002037      0.004590
Li	      4.08400      4.14486      4.35461         0.038591     -0.024409     -0.002575
Li	      4.11311      2.15486      6.54758         0.034121      0.041540     -0.027795
Li	      6.07668      4.14184      6.51079         0.008212      0.010632     -0.035590
Li	      2.08685      6.11908      4.24284        -0.033474     -0.025176      0.003176
Li	      4.14167      6.12840      6.65171        -0.015104      0.001629      0.037605
Li	      4.17846      4.14958      8.43889         0.036289      0.008445     -0.033726
Mn	     10.18718      6.08996      8.61916        -0.137138      0.023813     -0.149735
Mn	      6.22969      6.05430      4.38435         0.139896      0.103547     -0.036531
Mn	      6.16708      4.09072     10.73806        -0.193118      0.000818     -0.036293
Mn	      2.14159      4.19797      6.46644         0.072788      0.014325      0.027692
Mn	      6.24882      6.14438      8.61521         0.115573      0.012856     -0.081962
V	      8.22352      2.07083      6.53426        -0.001782     -0.104713     -0.032965
V	      6.15626      2.11760      4.29346         0.155285      0.028354     -0.018673
Cu	      4.13185      2.07416      2.15553        -0.056257     -0.057480      0.170908
Ni	      4.11016      4.08945      0.06973        -0.059978      0.064501     -0.179240
O	      1.82956      2.00401      2.03348         0.142809     -0.010462      0.128741
O	      4.05643      4.01672      2.11027         0.041155      0.093413      0.141541
O	      4.33793      2.03971      4.35085        -0.331707     -0.123826      0.065181
O	      6.21913      4.00698      4.32644         0.034474     -0.001274     -0.006339
O	      6.23432      2.00644      6.42985        -0.042877      0.137935      0.085570
O	      8.28037      3.85265      6.47924        -0.125997      0.064730     -0.024447
O	      1.89944      4.04511      4.35232         0.037448      0.032866     -0.011421
O	      4.07186      6.27828      4.09622         0.048313     -0.035620      0.135615
O	      3.98259      4.19282      6.41012         0.002380      0.035534     -0.003487
O	      6.22059      6.28615      6.62310         0.002956      0.014020      0.013071
O	      6.14298      4.22353      8.58579         0.022556      0.021979      0.015822
O	      8.26234      6.13887      8.57172        -0.202282     -0.032822      0.000972
O	      2.04953      6.22472      6.52524         0.143601     -0.070316     -0.004998
O	      4.13128      8.21562      6.54200         0.070807     -0.141699     -0.203110
O	      4.35099      6.29670      8.65482        -0.084964     -0.091680      0.017703
O	      6.38666      8.13780      8.84771         0.006657     -0.049704      0.005815
O	      6.22456      6.09918     10.69335        -0.012744      0.008529     -0.057586
O	      8.21181      8.16027     10.99141         0.124162     -0.004562      0.038258
