# total energy = -103.86646406 eV
 
CRYSTAL
PRIMVEC
2.083655 4.153668 2.066743 
4.155251 -2.062484 -2.083481 
0.011158 4.182168 -4.201247 
PRIMCOORD
16 1
Li	      2.11775      4.18281      1.99306        -0.007700      0.008762     -0.023123
Li	      2.06126      2.06871     -0.03022        -0.014308      0.012925     -0.015562
Li	      4.18108      2.11389     -2.08868         0.014572     -0.013540      0.015221
Li	      4.12537     -0.00006     -4.11223         0.006699     -0.009523      0.025029
Ti	      2.02734      4.06893     -1.99981        -0.104324     -0.153580      0.252416
Ti	      4.22647      4.29599     -4.32008         0.103110      0.152534     -0.254528
Ni	      4.16319      4.16801     -0.02606        -0.000233      0.000477      0.000225
Ni	      4.16879      6.25917     -2.12658        -0.000284      0.000089     -0.000427
O	      2.05008      2.16455     -2.14068        -0.003905      0.244659      0.125568
O	      4.06411      4.22224     -2.15181        -0.053193     -0.131389     -0.114554
O	      2.18971      4.14242     -4.16821         0.055031      0.132242      0.114957
O	      4.19262      2.01806      0.02198         0.003411     -0.244436     -0.125883
O	      4.10581      0.03601     -1.98431         0.136872      0.004278      0.274895
O	      2.13681      4.14672     -0.13444        -0.136047     -0.003829     -0.274016
O	      4.25443      2.20811     -4.18541         0.202477      0.016631     -0.001828
O	      1.99940      6.15663     -2.13465        -0.202178     -0.016300      0.001610
