# total energy = -226.45000873 eV
 
CRYSTAL
PRIMVEC
0.002168 6.203614 6.226345 
6.480855 0.012067 6.215684 
4.335971 4.143608 -0.007283 
PRIMCOORD
36 1
Li	     10.64368      4.18294      6.19680        -0.030309     -0.025613      0.000920
Li	      8.57394      2.16775      6.16163        -0.043321     -0.033286      0.050160
Li	      6.46438      2.09323      8.11873         0.069322     -0.016289      0.000618
Li	      4.32359      4.15060      4.22718        -0.025626      0.011414     -0.031179
Li	      4.48108      2.10454      6.23776        -0.012769      0.029381      0.006285
Li	      6.45146      4.07722      6.23654         0.012963     -0.005329      0.029539
Li	     10.71503      8.32003     10.47517        -0.004246     -0.030973      0.029974
Li	      2.27611      4.16568      6.16570         0.046501      0.041386     -0.058063
Li	      8.65799      8.21951      8.24685        -0.004816     -0.032522     -0.030442
Mn	      2.11355      6.20092      8.18505        -0.059875      0.045473     -0.041317
Mn	      4.34403      8.28406      8.20738        -0.072739      0.126568     -0.043024
Mn	      6.51922      2.07235      4.23486        -0.183818     -0.103707      0.159754
Mn	      8.67826      4.14611      8.25198        -0.021624     -0.042999     -0.009201
Mn	      4.36133      6.16323      6.17146        -0.220494      0.062446     -0.171301
V	      6.47716      6.25071      4.20382        -0.008465      0.311257     -0.118711
V	      6.49765      6.10635      8.32421        -0.022315     -0.110626     -0.082621
Cu	      8.65784      4.12321      4.28794        -0.168406     -0.166108     -0.103865
Cu	      2.22216      6.26670      4.19072        -0.206185      0.033662     -0.173727
O	      2.08155      2.13796      2.17172         0.086759     -0.047275      0.040724
O	      4.38307      4.00641      2.02077        -0.038638      0.002746      0.010684
O	      4.30760      2.00944      4.02712         0.080271      0.142106      0.011747
O	      6.60075      4.33719      4.08971         0.189358     -0.264830      0.024688
O	      6.46353      2.07716      6.08798        -0.024982      0.020868     -0.111987
O	      8.62967      4.19487      6.39723        -0.047813      0.005790     -0.011869
O	      2.24720      3.97711      4.05989         0.051829     -0.203418      0.030050
O	      4.53828      6.21886      4.25664         0.196987     -0.019339      0.026630
O	      4.34190      4.29785      6.21839         0.042864     -0.029938      0.022749
O	      6.36421      6.25229      6.21714        -0.000739     -0.017654      0.122155
O	      6.41793      4.32714      8.30600         0.022947      0.010068      0.010279
O	      8.51681      6.14666      8.42443        -0.028132      0.169157      0.078283
O	      2.41478      6.19776      6.12373         0.138299      0.033708      0.044108
O	      4.35913      8.17085      6.28889         0.046511     -0.020843      0.043525
O	      4.39237      6.29308      8.12349         0.068012     -0.041517     -0.065825
O	      6.52228      8.12401      8.43801        -0.001675     -0.006533      0.046351
O	      6.32522      6.15803     10.27536        -0.203325     -0.010664      0.133709
O	      8.50465      8.33769     10.37653         0.377689      0.183429      0.130200
