# total energy = -230.29263166 eV
 
CRYSTAL
PRIMVEC
0.008731 6.070868 6.556017 
6.457328 0.005498 6.557956 
4.316557 4.060375 -0.007438 
PRIMCOORD
36 1
Li	      6.33183      0.02345      6.44676        -0.037202      0.032789     -0.073179
Li	      2.35028      6.05483      8.75508         0.032269     -0.017600      0.074066
Li	      4.38885      6.05791     10.89679         0.003361      0.017387     -0.028048
Li	      6.49028      8.05733     10.92664        -0.025745      0.057401      0.011082
Li	      8.63510      6.03624      6.57135        -0.045812     -0.010221      0.040434
Li	      6.56490      4.04561      6.63422         0.094027      0.015310      0.019750
Li	      4.34605      6.06073      6.76201         0.024663     -0.014885     -0.005595
Li	      4.27693      4.16659      8.71317        -0.015509      0.000456     -0.029926
Li	      6.38290      6.06720      8.77077        -0.043073      0.023432     -0.002946
Mn	      8.60462      8.11439     13.03312         0.034543      0.030858     -0.023209
Mn	      4.35531      8.08131      8.70894         0.050125     -0.037955      0.042093
Mn	      6.44776      2.00674      8.67497         0.039278     -0.022475     -0.021724
Mn	      4.36060      4.05514      4.48076         0.065205     -0.020205      0.084809
Mn	      6.40080      4.07975     10.88951        -0.009604     -0.014368     -0.003528
V	      6.59379      5.98913      4.40741        -0.001759     -0.090540      0.044122
V	      2.21827      4.07798      6.63213        -0.000864     -0.030160     -0.027078
Fe	      8.44696      6.12766     10.79649         0.067015     -0.092383      0.062351
Cu	      8.60840      4.08143      8.61784        -0.029579     -0.010760     -0.068202
O	      2.32739      2.05593      2.37938         0.023198     -0.036376      0.042525
O	      4.23623      4.06832      2.28792         0.053690     -0.049143      0.080775
O	      4.20416      2.03953      4.42888         0.038788     -0.064719      0.044963
O	      6.43510      4.20940      4.42504        -0.015846      0.098724      0.032100
O	      6.62687      2.00798      6.75747        -0.001436      0.020774      0.019482
O	      8.60956      3.91318      6.48420         0.020471     -0.060747     -0.111476
O	      2.16668      4.01548      4.55134         0.008606     -0.012821      0.110825
O	      4.39712      6.13132      4.19122        -0.032377      0.032493     -0.083154
O	      4.11523      4.07412      6.60452         0.030589      0.004038     -0.034240
O	      6.44881      6.24821      6.39452        -0.048081      0.027747     -0.004884
O	      6.56663      3.95064      8.83353        -0.027064      0.019441      0.002584
O	      8.60892      6.01164      8.84826        -0.015077      0.087880     -0.051135
O	      2.15199      6.01642      6.38442        -0.058291      0.025492     -0.054149
O	      4.25073      8.09145      6.42385        -0.071904      0.020645     -0.035752
O	      4.33598      6.20201      8.73367        -0.015753      0.062087      0.006579
O	      6.31861      8.16625      8.51910         0.010514      0.034283     -0.004738
O	      6.51815      6.03976     10.88168        -0.104543     -0.094491     -0.047622
O	      8.56337      8.04355     10.87519         0.003176      0.068615     -0.007957
