# total energy = -231.19298158 eV
 
CRYSTAL
PRIMVEC
0.017763 6.159099 6.421891 
6.317460 0.006870 6.432919 
4.222496 4.124389 -0.006428 
PRIMCOORD
36 1
Li	      6.39271      6.20042     12.78387         0.053289      0.032612     -0.000547
Li	      8.41882      8.18922     12.82733         0.025783     -0.049964     -0.028774
Li	      4.27846      8.21397      8.60768         0.010310      0.051349      0.012891
Li	      6.27299      2.06045      4.32091         0.012452      0.004053      0.014620
Li	      2.19420      2.03617      4.26292         0.027658     -0.000434     -0.046742
Li	      4.22821      2.04582      6.37411        -0.026365      0.013789      0.014399
Li	      8.37946      6.19111     10.72362        -0.041185      0.022453     -0.021039
Li	      4.21663      6.18716      6.48194        -0.005400      0.028582      0.007934
Li	      8.42239      8.22393      8.60057         0.000710     -0.046018      0.077699
Mn	     10.44498      6.18676      8.56135        -0.005878      0.027960     -0.023505
Mn	      2.16262      4.03583      2.04928        -0.026065     -0.014528     -0.016228
Mn	      4.23218      4.07810      4.27780         0.011092      0.008773     -0.033304
Mn	      6.31346      4.12963      6.35670        -0.002278     -0.007174      0.043164
Mn	      6.33663      6.22440      8.60077         0.020567     -0.023079      0.043432
V	      4.11985      8.20010      4.36241        -0.078799     -0.040485     -0.036118
V	      2.27722      6.20314      8.55002         0.008704      0.019751     -0.035991
Fe	      2.08935      4.13809      6.39418         0.073766     -0.049055      0.017052
Ni	      4.23026      0.09590      4.32739         0.028486     -0.021461      0.049253
O	      2.14554      1.88476      2.11310         0.042625      0.000740     -0.036075
O	      4.30745      4.19610      2.22256         0.062951     -0.023004      0.024307
O	      4.23510      2.18171      4.25873        -0.003735      0.079414      0.019425
O	      6.42486      4.10350      4.14245        -0.117381      0.016749     -0.019124
O	      6.28171      2.17036      6.62033        -0.008156      0.012352     -0.027357
O	      8.25638      4.12334      6.37246        -0.066897     -0.000981      0.091699
O	      1.94652      4.05958      4.36392         0.038125     -0.008514     -0.055240
O	      4.18455      6.13938      4.11535        -0.002478     -0.057413     -0.011116
O	      4.28092      4.14893      6.24050        -0.015345     -0.007687      0.000709
O	      6.31386      6.15645      6.59884        -0.024489     -0.026057     -0.000078
O	      6.29732      4.00586      8.71439        -0.040310     -0.029424     -0.030954
O	      8.28829      6.17886      8.60842        -0.023770     -0.015571      0.005146
O	      2.16383      6.09038      6.55044         0.030755      0.118773      0.041007
O	      4.32599      8.23282      6.28269        -0.033308      0.018282      0.005259
O	      4.26250      6.18000      8.64469        -0.029664      0.001780     -0.077965
O	      6.36718      8.38517      8.44263        -0.015672      0.007979      0.049024
O	      6.30706      6.09672     10.61871         0.082194      0.027199     -0.009709
O	      8.64095      8.23169     10.76227         0.037710     -0.071743     -0.007155
