# total energy = -236.78534581 eV
 
CRYSTAL
PRIMVEC
0.025512 6.393532 6.295124 
6.396000 0.009812 6.311762 
4.259389 4.268364 0.011780 
PRIMCOORD
36 1
Li	      0.05838      6.35594      6.28334        -0.051469     -0.047929     -0.007913
Li	      2.15207      2.11861      0.06541         0.006201      0.007116     -0.004415
Li	      4.27139      6.39956      2.12337        -0.008881      0.017160     -0.006828
Li	      2.08959      4.27217      2.18261        -0.023113     -0.003659      0.034122
Li	      2.06855      2.18926      4.17282         0.030992     -0.010926     -0.023243
Li	      4.31730      8.46324      4.18462        -0.032025     -0.042744     -0.025339
Li	      4.27322      6.41575      6.21812        -0.013937     -0.014690     -0.042011
Li	      4.31314      4.25632      8.39744        -0.001870      0.007506      0.007171
Li	      6.46464      6.32668      8.42571        -0.030739     -0.016016      0.018933
Mn	      2.16907      6.45785      8.30141         0.063730      0.016565      0.018424
Mn	      4.22075      2.15434      2.06904        -0.008508     -0.031395     -0.080132
Mn	      6.44023      8.47037     10.53157         0.034187     -0.000048      0.001086
Mn	      4.26821      4.34584      4.17409        -0.032033     -0.020429      0.021424
Mn	      8.54346      6.40997      6.49522         0.005412     -0.061267      0.015410
Mn	      8.53975      6.36271     10.47119        -0.016933      0.012817     -0.011925
V	      8.59471     10.47281     10.53242         0.092109     -0.001209      0.011287
V	      6.41769      4.30399      6.44870         0.028573      0.147878      0.261884
Fe	      6.27956      8.46829      6.24056         0.107445     -0.070059      0.096762
O	      2.26255      1.99042      2.05517         0.020609     -0.012569      0.050575
O	      4.41881      4.32486      2.22511         0.005159      0.053018     -0.054904
O	      4.28323      2.21299      4.07629        -0.087198      0.135520     -0.043586
O	      6.56438      4.32465      4.37108        -0.011943      0.049739     -0.032261
O	      6.38367      2.33281      6.32936         0.113538     -0.009741      0.031413
O	      8.43478      4.31301      6.20211         0.134575     -0.048177     -0.001312
O	      2.07886      4.21952      4.26373         0.023136     -0.012070     -0.119254
O	      4.18837      6.27402      4.17849        -0.049767     -0.002297     -0.002700
O	      4.36518      4.28136      6.16600        -0.089228      0.098265     -0.039858
O	      6.42763      6.41415      6.36455        -0.098653     -0.027060     -0.046372
O	      6.41145      4.30742      8.21774        -0.006323     -0.040809     -0.196965
O	      8.50042      6.43578      8.55010         0.026224      0.003264      0.106184
O	      2.12051      6.27714      6.15758         0.011829      0.008057     -0.022497
O	      4.32989      8.49447      6.42942        -0.108370     -0.007543      0.056779
O	      4.14929      6.37614      8.57663        -0.039529     -0.004929      0.004569
O	      6.32569      8.72498      8.30981        -0.034263      0.022406      0.001895
O	      6.30164      6.39145     10.50284        -0.007629     -0.032447      0.030962
O	      8.59134      8.66001     10.51982         0.048690     -0.061300     -0.007365
