# total energy = -232.24319322 eV
 
CRYSTAL
PRIMVEC
-0.014632 6.340922 6.233871 
6.389081 -0.010779 6.230348 
4.258528 4.223844 -0.006388 
PRIMCOORD
36 1
Li	      8.53806      8.38107     12.34991        -0.018336     -0.006783      0.050200
Li	      4.12787      2.11889      2.05639         0.035621     -0.000158     -0.016944
Li	      8.55856     10.34879     10.40206        -0.037107      0.103751     -0.025567
Li	      0.13808      2.07968      2.13685        -0.044596      0.062478     -0.001545
Li	      2.15786      4.05652      2.13769        -0.042152     -0.014590      0.041631
Li	      2.09670      2.15517      4.05789         0.019533     -0.008410      0.018059
Li	     10.36342      8.40660     10.38128         0.057098     -0.046950     -0.099606
Li	      8.53052      6.50573     10.37609        -0.018853     -0.106600     -0.110770
Li	      8.48725      8.47054      8.43694         0.001006     -0.020455     -0.036320
Mn	      4.24479     10.51064      6.19301        -0.033168     -0.104718      0.012532
Mn	      2.16878      0.08812      2.09863        -0.016830      0.006238     -0.008956
Mn	      4.22525      4.24586      4.10138        -0.064519      0.038913      0.045740
Mn	      2.10911      4.24408      6.19388         0.004201     -0.065043     -0.083795
Mn	      4.20496      6.38880      6.18434         0.050589     -0.094561     -0.054714
Mn	      6.32699      6.37980      8.45436         0.098057     -0.066345     -0.019123
V	      6.44537      4.17844      6.32347        -0.007430      0.091855      0.294630
V	      8.54169      6.29840      6.29412        -0.017315      0.099419      0.271349
Ni	      6.45326      8.45669     10.37480        -0.076439     -0.025120     -0.031569
O	      2.13762      1.96856      2.07834         0.040739     -0.046557      0.007876
O	      4.34406      4.20788      1.97825         0.075514      0.002175     -0.023020
O	      4.30786      2.27987      4.35721         0.026569      0.045270     -0.085365
O	      6.25685      4.20071      4.32213         0.016055      0.093275     -0.043380
O	      6.27799      2.19332      6.24285         0.019782     -0.002435      0.036888
O	      8.46126      4.34018      6.18657         0.060208      0.029837      0.027952
O	      2.30418      4.17125      4.27194         0.019250      0.073394      0.053572
O	      4.24632      6.20573      4.24899        -0.011398     -0.039296      0.080185
O	      4.35828      4.25600      6.30514         0.043236     -0.001758     -0.053800
O	      6.48419      6.26089      6.25349         0.016425      0.103904     -0.051494
O	      6.44105      4.22485      8.12832        -0.011084      0.026124     -0.167084
O	      8.46884      6.35612      8.09423        -0.003027      0.028959     -0.023268
O	      2.04377      6.28173      6.17283         0.020459     -0.078340      0.035059
O	      4.31678      8.34631      6.12542        -0.096342     -0.012144      0.016786
O	      4.19848      6.40284      8.15634        -0.084989     -0.011704     -0.055499
O	      6.38477      8.57569      8.18229        -0.044013      0.032009     -0.091290
O	      6.32745      6.38241     10.45383        -0.045158     -0.104384      0.100608
O	      8.42995      8.45648     10.36039         0.068417      0.018750     -0.009957
