# total energy = -239.52112708 eV
 
CRYSTAL
PRIMVEC
-0.010532 6.240587 6.424461 
6.338172 -0.014643 6.429664 
4.234700 4.173337 -0.019195 
PRIMCOORD
36 1
Li	      4.20789      4.17557      0.07358         0.002774      0.037065      0.052416
Li	      4.24624      2.12979      2.19255         0.010812     -0.018514      0.015031
Li	      6.26840      2.13339      4.24077         0.023026     -0.003443     -0.022942
Li	      2.11681      4.13684      2.13407        -0.046567      0.009365      0.007535
Li	      2.20648      2.05770      4.32735        -0.019359     -0.026733     -0.003000
Li	      4.19975      2.16264      6.39589        -0.052422      0.026931      0.059015
Li	      6.27076      4.15886      6.38305         0.070724     -0.023882      0.027328
Li	      6.39853      8.29280      6.45741        -0.036937     -0.016060     -0.016195
Li	      4.17907      4.14846      8.48436         0.029767     -0.003709     -0.005450
Mn	      6.36151     10.32822      8.56588         0.051479      0.123587     -0.068438
Mn	      4.18738      0.12738      4.32032         0.012427     -0.115067     -0.060642
Mn	     10.53957      6.21981      8.51969         0.002890     -0.053564      0.039297
Mn	      4.23810      4.07333      4.29283        -0.011202      0.103573     -0.022278
Mn	      0.01984      4.14276      4.26695        -0.086872     -0.010893     -0.005537
Mn	      4.28796      6.21190      6.43363         0.030232     -0.023353     -0.098794
Mn	      6.31297      6.31285      8.52137         0.052059     -0.070246      0.043111
V	      8.44090      2.16813      6.46334        -0.041939     -0.040515      0.064546
V	      8.37911      6.22498     10.66087        -0.057037     -0.034472      0.020988
O	      2.19918      1.94194      1.97678        -0.100157     -0.158374     -0.028221
O	      4.22764      4.23581      2.19551         0.058775      0.118597      0.018115
O	      4.19953      2.15161      4.36706        -0.009236      0.369005      0.010956
O	      6.37783      4.18638      4.19427        -0.069363     -0.066296     -0.106492
O	      6.50462      2.03977      6.57479        -0.074641     -0.080292      0.044548
O	      8.50730      3.96180      6.40125         0.130898     -0.040401      0.116918
O	      2.00288      4.27829      4.29041        -0.115813     -0.204887      0.091311
O	      4.14556      6.13961      4.14691         0.050978     -0.083194     -0.090764
O	      4.24029      4.27142      6.30021        -0.041913      0.114247     -0.014628
O	      6.25633      6.22307      6.56391        -0.261999      0.082169      0.098173
O	      6.34709      4.00984      8.69739        -0.107118     -0.169864      0.137080
O	      8.29679      6.25203      8.66225         0.031345      0.097010     -0.098966
O	      2.23492      6.34121      6.32731         0.165087     -0.108954      0.187291
O	      4.15699      8.21645      6.26513         0.102356     -0.084858     -0.094111
O	      4.31953      6.22628      8.58838        -0.046187     -0.009897     -0.174004
O	      6.32297      8.43182      8.52457         0.057606      0.196294     -0.021716
O	      6.30322      6.28402     10.55530         0.127770     -0.004514     -0.147515
O	      8.52187      8.22245     10.82410         0.167757      0.174137      0.046034
