# total energy = -204.32665789 eV
 
CRYSTAL
PRIMVEC
0.021319 6.163907 6.281391 
6.137621 -0.017055 6.319208 
4.099716 4.142700 -0.019277 
PRIMCOORD
36 1
Li	      6.17767      6.19790     12.45208         0.045159      0.018815      0.010095
Li	      2.02301      0.01707      2.09275        -0.055565     -0.009599     -0.063298
Li	      8.28701     10.21540     10.56004         0.010964     -0.011523      0.077974
Li	      8.11326      4.20022      8.34229         0.037881     -0.014424     -0.033336
Li	      6.16024      6.15816      4.28480        -0.023580     -0.008454      0.032528
Li	      8.09564      6.22382     10.40494         0.052569      0.036215     -0.033947
Li	      6.19122      8.17618      6.26972        -0.009218     -0.008234     -0.009551
Li	      8.27134      8.12046      8.39477        -0.003705     -0.014928      0.013626
Li	      6.28031      6.07215      8.43530         0.065044     -0.014617     -0.018565
V	      4.16672      8.11838      8.44222        -0.026123      0.005514     -0.106421
V	      4.01076      4.22066      4.12469        -0.043868     -0.065594     -0.086171
Cr	      4.11419      6.18040      6.29030         0.121227      0.038340     -0.028406
Co	      8.22504      8.24108     12.58421         0.070246      0.072138      0.015647
Cu	      6.24384      8.12849     10.48604         0.086477      0.111284     -0.136170
Ni	      6.12351      2.10426      8.39793         0.116810     -0.172653      0.130979
Ni	      6.18179      4.23975     10.42803         0.122637     -0.094833      0.136075
Ni	      8.14309      6.11917      6.38269         0.049919      0.040795     -0.247775
Ni	      6.16502      4.11573      6.36464        -0.080430     -0.002504     -0.019672
O	      6.16242      6.21430     10.46800        -0.002255      0.076777     -0.010661
O	      2.19342      2.09779      1.92037        -0.045438      0.039644     -0.065463
O	      4.08898      4.07134      2.29426        -0.015731      0.086709     -0.010183
O	      4.01345      2.10836      4.02598        -0.124899     -0.048607      0.071439
O	      5.91730      3.97698      4.23302         0.007348     -0.106490     -0.054552
O	      6.25435      2.05974      6.40071         0.009189     -0.115587     -0.035358
O	      8.18002      4.00024      6.29188         0.106793     -0.013839      0.010959
O	      2.20884      4.10673      4.23006        -0.099890      0.011351      0.037624
O	      4.13893      6.06789      4.22731         0.057438      0.072725      0.096237
O	      4.08055      4.14174      6.13440        -0.087159     -0.040906      0.068661
O	      6.11559      6.14480      6.27413        -0.103965      0.059593     -0.077238
O	      6.13104      4.07128      8.46929         0.007515      0.201149      0.010447
O	      8.25231      6.18826      8.30624        -0.109386      0.011979      0.332597
O	      2.15274      6.37800      6.30162        -0.106500     -0.035896      0.004800
O	      4.04326      8.21025      6.36389        -0.018512      0.012936     -0.033686
O	      4.08415      6.32834      8.33197        -0.015264     -0.165800     -0.045004
O	      5.90883      8.30852      8.26290         0.024898      0.023609     -0.031343
O	      8.26136      8.23609     10.70107        -0.020629      0.024916      0.097113
