# total energy = -204.93886766 eV
 
CRYSTAL
PRIMVEC
-0.010346 6.265528 6.271911 
6.274488 -0.008107 6.270261 
4.157321 4.150913 0.020488 
PRIMCOORD
36 1
Li	      6.29070     10.35604      8.43837        -0.010327     -0.028578     -0.051367
Li	      8.25111      4.12155      4.16047         0.002731      0.002027     -0.022459
Li	      6.33252      2.21063      4.13504        -0.015303      0.032000      0.026455
Li	      6.22121      2.18745      8.38046        -0.007859     -0.039262     -0.052550
Li	      4.18383      4.10261      4.10953         0.033866      0.016685      0.002992
Li	      8.20156      6.36881      6.33014        -0.022345      0.000998      0.019366
Li	      6.22995      4.17571      6.26295        -0.024708     -0.037344     -0.018462
Li	      8.33228      6.31429     10.40240        -0.034146     -0.031407      0.058893
Li	      6.14929      8.27215      6.34842         0.052072      0.048099      0.012528
V	      6.11123      0.27331      6.29184         0.035646      0.203149      0.239847
V	      4.11714      6.07192      6.20155        -0.011587     -0.033430      0.234922
Cr	      2.18037      2.00689      4.13535        -0.009445     -0.229484     -0.050902
Co	      8.29411      8.27341      8.47453         0.251182      0.195550      0.051504
Cu	      4.24070      8.32858      8.40301        -0.042678      0.072141      0.209328
Cu	      2.05382      4.20674      2.17060         0.189429     -0.022999     -0.181633
Cu	      6.27123      6.20536      8.40471        -0.067488      0.136588      0.039811
Ni	      2.12080      8.33247      6.26638        -0.197329      0.016173      0.201573
Ni	      4.13280      8.31504      4.22537         0.058321      0.032632      0.046472
O	      8.24685      6.26737      8.39199         0.092429      0.364083      0.086530
O	      6.25318      8.17084      8.43579         0.497239      0.006606     -0.038720
O	      2.20785      2.17918      2.09305        -0.058941      0.040611      0.115614
O	      4.37110      4.20741      1.77508         0.180979     -0.002810      0.077733
O	      4.03189      2.08856      4.12899         0.024129      0.028074     -0.017826
O	      6.21728      4.32226      4.15420         0.003529      0.019771     -0.036281
O	      6.29098      2.02980      6.23351        -0.068105      0.116643      0.042619
O	      8.48613      4.19529      6.37854        -0.257813      0.040665      0.015708
O	      2.01732      3.96753      4.08412         0.055284      0.081700      0.101357
O	      4.23357      6.20718      4.32131        -0.029228     -0.036900     -0.136674
O	      4.10854      4.28754      6.31736         0.044079     -0.282445      0.370848
O	      6.05944      6.21537      6.11065         0.162856      0.083682     -0.128028
O	      6.14101      4.22239      8.40229        -0.904924     -0.213639      0.057208
O	      2.30132      6.27756      6.24885        -0.085641     -0.057861     -0.016503
O	      4.15066      8.18561      6.36248         0.153675     -0.017159      0.018054
O	      4.24859      6.09886      8.21482        -0.089342     -0.485883     -0.089042
O	      6.36683      6.15068     10.85719         0.089472     -0.024044     -0.200617
O	      8.37515      8.38000     10.50727         0.010289      0.005367     -0.988300
