# total energy = -204.85732510 eV
 
CRYSTAL
PRIMVEC
0.000743 5.991978 6.650678 
6.093594 0.024529 6.625046 
4.092022 4.008196 -0.013329 
PRIMCOORD
36 1
Li	      4.00560      4.03954      0.19849         0.074104     -0.047372     -0.029950
Li	      6.08518      4.02011      2.24251        -0.014344     -0.018334      0.035500
Li	      4.10971      6.02544     11.05067         0.027995     -0.002831      0.005891
Li	     10.09940      5.90713      8.78398         0.136931      0.044743      0.068268
Li	      8.21026      4.02215      8.72237        -0.071858     -0.047099      0.045700
Li	      4.04305      3.97135      4.23290         0.020922      0.042466      0.011131
Li	      8.11455      5.96633     10.76257        -0.017725     -0.008630      0.053914
Li	      4.13657      6.00596      6.83390         0.013045     -0.011784     -0.089339
Li	      4.06685      4.06320      8.77322        -0.032816     -0.006066      0.013285
V	     10.07660      7.89946     10.98276         0.037267      0.091543      0.077021
V	      2.03490      4.19922      6.56692        -0.049726     -0.227451      0.018112
Cr	      8.16191      6.00235      6.71943        -0.102660      0.109108     -0.158114
Co	      2.13239      1.83263      4.30193        -0.020723      0.030170      0.044311
Cu	      4.09430      8.02844      8.83343        -0.011309      0.035868      0.016669
Cu	      6.04898      2.02507      4.47152         0.244482     -0.067163      0.072236
Cu	      6.05973      4.02325      6.63405        -0.093350      0.087146     -0.055663
Cu	      6.12769      6.05097      8.88093         0.015256     -0.021371     -0.177675
Ni	      2.04417      2.00264      0.05326         0.202891     -0.207053      0.136620
O	      4.16188      6.15430      8.85239         0.242622     -0.075094      0.007695
O	      5.97039      8.00656      8.55336         0.067493      0.164816     -0.102513
O	      2.23666      1.99174      2.29720        -0.143870      0.001684     -0.061523
O	      4.08701      3.87369      2.19890        -0.025906      0.128908      0.014658
O	      4.06472      2.00918      4.70366        -0.068541     -0.004738      0.076203
O	      6.10012      4.02978      4.34723         0.029026     -0.015897      0.010142
O	      6.08525      2.05732      6.75805        -0.111910      0.002728      0.191566
O	      8.01750      4.01041      6.69591         0.105477      0.173490      0.026230
O	      1.94038      3.87577      4.62151         0.136619     -0.008496     -0.202325
O	      4.12266      6.10619      4.29309        -0.039427     -0.279019     -0.048871
O	      4.02879      4.01194      6.70574         0.070030     -0.071166      0.010637
O	      6.14507      6.05335      6.67569         0.043104      0.052252     -0.258520
O	      6.11759      4.10443      9.20407        -0.027134     -0.219238     -0.144649
O	      8.07796      6.05331      8.71642        -0.219053     -0.018194      0.146322
O	      2.09054      5.94283      6.64175         0.011457      0.235101     -0.002478
O	      4.15195      8.06603      6.30671        -0.075623      0.054656      0.016952
O	      6.15787      6.04298     10.89545        -0.065609      0.090233      0.323876
O	      8.28510      8.00628     11.17880        -0.287138      0.012085     -0.091321
