# total energy = -203.56556952 eV
 
CRYSTAL
PRIMVEC
0.048489 6.237792 6.389543 
6.122144 0.019221 6.418247 
4.097796 4.194054 -0.003706 
PRIMCOORD
36 1
Li	      4.02803      4.12353      0.02590        -0.001361      0.006250     -0.016347
Li	      8.16786      4.23252      4.31221         0.037297      0.000166     -0.049286
Li	      2.06124      4.24451      2.22361        -0.008068     -0.039921      0.101683
Li	      4.03097      4.19211      4.30327        -0.044492      0.053259      0.027580
Li	      8.20146      6.26983      6.47039        -0.025067     -0.029314      0.062030
Li	      0.12249      4.12633      4.29580        -0.017176     -0.002654      0.054165
Li	      2.13263      6.12729      4.20955         0.074308     -0.042702     -0.085712
Li	      2.11438      4.20416      6.23040         0.011110     -0.014254     -0.074401
Li	      4.15407      4.08517      8.48599         0.028837      0.002221     -0.015972
V	      6.12715      4.22380      2.21246         0.344502      0.086740     -0.199851
V	      6.26231      8.18799     10.63665        -0.093677     -0.184851      0.041307
Cr	      6.13813      4.19351      6.41933        -0.150092      0.116881      0.107380
Co	      6.25250      6.26640      8.52338         0.066813     -0.055371     -0.093893
Cu	      2.12149      8.33928      6.38112        -0.139379      0.042292     -0.123178
Cu	      4.06744      2.13985      2.12054        -0.058267      0.177990      0.053699
Cu	     10.12027      6.31132      8.64890         0.080035     -0.013479      0.237877
Cu	      2.06460      2.19863      4.31918         0.186770      0.156958      0.068086
Cu	      4.11282      6.27957      6.37759         0.253106     -0.192253     -0.094476
O	      2.14609      6.34146      6.57219        -0.309435     -0.054668      0.598939
O	      4.06595      8.30267      6.55602        -0.011669      0.191222      0.117219
O	      8.02209      8.32809     10.58629         0.144156      0.056224     -0.008440
O	      1.85187      2.00058      2.33657         0.305615     -0.340773     -0.462420
O	      4.26966      4.20250      2.08058        -0.423593     -0.032192      0.089795
O	      4.20487      2.11685      4.10775         0.128338      0.021702      0.032116
O	      6.15373      4.13906      4.24829        -0.028252     -0.054365     -0.352125
O	      6.11311      2.18738      6.14238        -0.050561     -0.023380     -0.005518
O	      8.02097      4.08713      6.33830         0.145753      0.063621     -0.076472
O	      2.06529      4.11721      4.27092        -0.003744      0.223453      0.026880
O	      4.18967      6.32480      4.39829        -0.301028     -0.025165     -0.269390
O	      4.27297      4.27689      6.34667        -0.024890     -0.114838      0.006987
O	      6.14529      6.18780      6.41620         0.096775     -0.132813      0.339331
O	      6.12950      4.16206      8.29552         0.031437     -0.014022      0.006063
O	      8.23537      6.25189      8.50743        -0.267432      0.019683     -0.105830
O	      4.01156      6.31665      8.52189         0.095396      0.047315      0.103063
O	      6.25695      8.45158      8.69188        -0.091044      0.169556     -0.069291
O	      6.15307      6.39961     10.63217         0.018979     -0.068518      0.028402
