# total energy = -204.60016609 eV
 
CRYSTAL
PRIMVEC
0.054262 6.137816 6.267657 
6.228000 0.032502 6.290027 
4.153635 4.108402 0.019849 
PRIMCOORD
36 1
Li	      2.10338      2.02330      0.18066         0.029591      0.019422      0.032313
Li	      2.07072      0.20145      2.20811        -0.033822     -0.053124      0.030885
Li	      3.97960      2.07288      2.18578         0.030726      0.024271     -0.012453
Li	      4.13268      0.15911      4.20879        -0.025311     -0.008995     -0.018795
Li	      6.11195      2.10588      4.20961         0.044143      0.033381     -0.058368
Li	      0.15037      2.02346      2.15710        -0.034458     -0.012680     -0.061495
Li	      2.12014      2.00665      4.04643         0.081924      0.093479     -0.025518
Li	      4.22566      8.13078      4.22418        -0.029084     -0.000130     -0.010676
Li	      4.21069      6.21625      6.18931         0.053687      0.040460      0.076962
V	      0.10541      6.11822      6.26973         0.108187     -0.028020      0.178328
V	      8.29850      8.33399      8.51481        -0.000129      0.127304      0.366161
Cr	      6.25354      4.07896      6.25669         0.046911      0.000139     -0.175677
Co	      2.12862      6.13267      4.17123         0.029411     -0.005009      0.368826
Ni	      2.08049      4.01080      2.10459         0.044041      0.131811      0.025622
Ni	      4.16251      2.04159      6.20350         0.007516     -0.076551      0.173332
Ni	      4.18148      4.13036      4.16805        -0.091768     -0.255362     -0.142000
Ni	      6.27106      8.15286      6.25407        -0.062723      0.023394      0.000771
Ni	      6.27070      6.15763      8.43849        -0.079988      0.050339      0.031824
O	      2.07842      2.08305      2.10098        -0.050928     -0.203368      0.010002
O	      4.15604      4.11195      1.85711         0.039401      0.005094      0.097189
O	      4.15630      2.24340      4.19602         0.017855     -0.225880     -0.072324
O	      6.09152      4.12778      4.29447         0.201400      0.012048      0.197865
O	      6.21751      1.97770      6.25244         0.127068      0.050257     -0.055427
O	      8.35549      4.11955      6.25998        -0.098027     -0.102946     -0.107867
O	      2.23796      4.21785      4.18543        -0.044351     -0.933637      0.016110
O	      4.03921      6.02861      4.21687        -0.077500      0.292391     -0.022635
O	      4.24417      4.06347      6.44424         0.099197      0.167980      0.049701
O	      6.27841      6.10564      6.38635        -0.177804     -0.158116     -0.068967
O	      6.13987      4.10098      8.30273        -0.063460     -0.102543     -0.050758
O	      8.30906      6.19679      8.50671         0.074125      0.037765     -0.803349
O	      1.99103      6.13942      6.12908        -0.123982      0.181631      0.482179
O	      4.23371      8.37769      6.24080        -0.068588     -0.051921     -0.046462
O	      4.20759      6.00240      8.44147        -0.077973      0.168755     -0.013838
O	      6.48894      8.20077      8.30245        -0.047526      0.080168      0.097389
O	      6.36124      6.17617     10.55611         0.129506     -0.052759     -0.089885
O	      8.37917      8.11118     10.29606         0.022734      0.730955     -0.398966
