# total energy = -206.89339636 eV
 
CRYSTAL
PRIMVEC
0.051573 6.089626 6.456174 
6.093842 0.047432 6.461702 
4.081422 4.082266 0.012529 
PRIMCOORD
36 1
Li	      6.17491      6.18449     12.80671        -0.077070      0.048808     -0.066055
Li	      1.98462      0.06545      2.07140        -0.123214      0.058830     -0.017497
Li	      4.28847      6.09927     10.75218         0.019986     -0.086341      0.072828
Li	      6.18657      8.05420     10.80180         0.001786      0.004700      0.044069
Li	      6.11457      2.06759      8.59152        -0.026361      0.084057     -0.082690
Li	      6.09236      6.16867      4.33546        -0.030868      0.043741     -0.003926
Li	      4.10906      2.05863      6.40780         0.010441     -0.028313      0.149825
Li	     10.19613      8.22615     10.81641         0.069573     -0.011745     -0.079453
Li	      6.16615      6.07677      8.74746         0.131027     -0.092668      0.007702
V	      4.12006      2.01990      2.27501        -1.129607      0.555514      0.483092
V	      6.23394      4.08988      6.33826         0.453558      0.049023      0.471730
Cr	      8.16429      8.13811      8.64428         0.240000     -0.435536     -0.173557
Co	      8.14054      4.17804      8.68734        -0.241360     -0.297925     -0.172798
Co	      4.06227      6.10755      6.48085         0.227297     -0.226796     -0.257880
Cu	      8.18864      8.15064     12.86934        -0.205726      0.215888      0.152691
Ni	      8.13937      6.16075     10.78660        -0.017030     -0.049755     -0.136908
Ni	      6.09179      8.13181      6.42162         0.051708     -0.066186      0.004805
Ni	      4.08416      4.09183      4.31496        -0.050327      0.034766     -0.032187
O	      6.26058      6.11417     10.80391        -0.225437      0.042361     -0.015997
O	      2.17856      2.19161      2.23443         0.321762     -0.152857     -0.221254
O	      4.01004      4.03850      2.22821         0.257556     -1.020252     -0.305858
O	      4.11495      2.04903      4.15077         0.179011     -0.339467     -0.585373
O	      6.09602      4.11652      4.55807         0.065418     -0.004501     -0.211511
O	      6.14448      2.23706      6.45472        -0.099305     -0.072495     -0.026408
O	      8.04643      4.13137      6.48381        -0.064056      0.059746     -0.218951
O	      2.08372      4.15691      4.37456        -0.168468     -0.075670      0.154794
O	      3.98307      6.09256      4.53725         0.126206      0.158624      0.252767
O	      4.12619      4.13725      6.52971         0.030464      0.173701      0.075440
O	      6.02624      6.02197      6.43619        -0.164264      0.022361     -0.005799
O	      6.10417      4.09712      8.39983        -0.154919     -0.004701     -0.029056
O	      8.17024      6.11851      8.62948         0.033881      0.480953      0.078529
O	      2.14306      6.12527      6.45904         0.098226      0.023238      0.136016
O	      4.06160      8.03098      6.59678         0.057637      0.017306      0.218131
O	      4.05719      6.12987      8.48162         0.086083      0.707509      0.176403
O	      6.05551      8.16872      8.50140         0.296005     -0.007191      0.032445
O	      8.17553      8.11144     10.57353         0.020387      0.191270      0.131890
