# total energy = -206.50116071 eV
 
CRYSTAL
PRIMVEC
-0.047051 6.321322 5.986484 
6.275226 -0.061139 6.001382 
4.165510 4.206180 -0.023822 
PRIMCOORD
36 1
Li	      2.04782      8.41559      5.96954        -0.088719      0.084856      0.038477
Li	      2.14767      6.26979      7.86516         0.018600      0.045391      0.044780
Li	      8.30908     10.45451      9.96213        -0.087784      0.061524      0.069745
Li	     10.34938      6.22070      7.92203        -0.003184     -0.035566      0.015074
Li	      8.31077      4.24393      7.95893         0.010147     -0.014234      0.057246
Li	      8.39322      6.18587      6.04995        -0.010659     -0.060700      0.017490
Li	      1.98940      4.32923      6.03725         0.038954      0.002565     -0.122619
Li	      4.02010      6.36838      6.00424         0.025227     -0.056333     -0.135144
Li	      4.14388      4.17726      7.95100        -0.002274      0.010637     -0.088520
V	      2.06721      2.16646      4.00048         0.236676     -0.202302      0.187551
V	      4.24138      4.10635      4.00436        -0.037153      0.087129      0.131732
Cr	      6.35901      4.11052      6.05340        -0.069940     -0.096872      0.014858
Co	      6.22996      8.36684      9.97099        -0.052113      0.020879      0.081527
Co	      6.22276      6.30609      7.95880         0.055839     -0.180608     -0.026914
Cu	      4.19305      8.30586      7.85653        -0.229542      0.313386      0.103243
Cu	     10.25393      8.42370      9.95768         0.014338      0.015764     -0.204255
Cu	      8.26753      6.37632      9.99483         0.116875     -0.099910     -0.064299
Ni	     10.39955      4.15476      6.02440        -0.176102      0.192787      0.014974
O	      4.09238      8.50539      5.82026         0.033659     -0.243128      0.424548
O	      8.09648      8.32869      9.94015         0.022023     -0.103489      0.007532
O	      2.20026      1.98134      2.22250         0.229112     -0.062552     -0.201290
O	      4.18126      4.13694      2.11787         0.084954     -0.153989     -0.014352
O	      4.16600      2.15482      4.06697         0.169713     -0.051413     -0.308038
O	      6.24116      4.11588      4.02693         0.007193     -0.143804     -0.054515
O	      6.25627      2.09439      5.93747        -0.001964      0.008176      0.013538
O	      8.30136      4.14273      6.03560         0.093969     -0.014393      0.023198
O	      2.18255      3.96941      4.04445        -0.038842      0.239028      0.005180
O	      4.41513      6.18919      3.94934        -0.216259      0.017281     -0.068947
O	      4.26738      4.21017      5.83331        -0.013629     -0.036160      0.051911
O	      6.31746      6.14703      5.91067         0.041134      0.093489      0.063859
O	      6.21007      4.33437      8.03727        -0.043142      0.145995      0.050532
O	      8.18266      6.26861      8.14616        -0.088088      0.109334     -0.016784
O	      1.97842      6.31854      5.83969         0.084856      0.069402      0.079609
O	      4.30082      6.37656      7.92750         0.054175     -0.053584     -0.079883
O	      6.18453      8.27228      8.03108        -0.157874      0.011338     -0.093943
O	      6.10557      6.48951      9.88767        -0.020176      0.080079     -0.017102
