# total energy = -205.77346573 eV
 
CRYSTAL
PRIMVEC
0.009997 6.259318 6.268961 
6.166258 -0.023633 6.302611 
4.092723 4.177327 0.002263 
PRIMCOORD
36 1
Li	      4.14012     10.34157      6.27091        -0.038038      0.003189     -0.018488
Li	      6.20818     10.30328      8.36855        -0.071042      0.134259      0.047901
Li	      4.14984      8.44533      8.19275         0.059670     -0.010782      0.008603
Li	      6.22441      8.32352     10.38900        -0.067069      0.092888      0.018272
Li	      4.15134      4.20873      4.13481         0.008948     -0.069225      0.027618
Li	      6.17101      4.18640      6.26679        -0.007849     -0.005837     -0.036004
Li	      4.11098      8.35929      4.27830         0.095791     -0.015032      0.006874
Li	      6.05172      8.39512      6.37701         0.054553      0.025256     -0.063458
Li	      4.04304      6.34906      6.29612         0.026389     -0.039685      0.086524
V	      4.17333      6.21482      2.14364         0.575442     -0.092304      0.144250
V	      4.11368      2.16636      6.18529        -0.003215      0.301489      0.222051
Cr	      8.20343     10.39162     10.48109        -0.325944      0.150954      0.001838
Co	      8.19424      4.15203      8.37732        -0.082805     -0.090494      0.067513
Co	      8.16947      8.34678      8.44307         0.114632     -0.413082     -0.478123
Cu	      2.17101      8.23356      6.21793        -0.160485      0.089866     -0.290604
Cu	      6.09930      6.26089      4.21273        -0.010513     -0.012958      0.057558
Cu	      1.97769      6.18194      4.27215         0.015425     -0.194018      0.067981
Cu	      6.06783      6.38282      8.41525        -0.257440      0.201075     -0.130688
O	      2.04445      6.30031      6.17142         0.009080     -0.127749      0.070169
O	      6.30261      8.37448      8.38286        -0.923156     -0.376208      0.036695
O	      1.95560      2.21076      1.99609        -0.739380     -0.120405     -0.130692
O	      3.98203      4.33813      2.08798         0.119003      0.330844     -0.068267
O	      4.12981      2.06732      4.39374         0.058198     -0.076594     -0.192076
O	      6.21358      4.34263      4.21613         0.126961     -0.300178      0.018224
O	      6.01706      2.05562      6.42104         0.074312     -0.041792      0.456820
O	      8.21428      4.30393      6.35440         0.039978      0.035598     -0.146366
O	      2.04441      3.98979      3.96373         0.040258      0.282139     -0.024979
O	      4.05989      6.20241      4.07118        -0.171204      0.087851     -0.557320
O	      4.14246      3.96176      6.44834         0.108561     -0.307428     -0.530949
O	      6.37864      6.25052      6.48150        -0.158758     -0.011037      0.084274
O	      6.18836      3.93402      8.36519         0.242416     -0.271371      0.083370
O	      8.30628      6.19352      8.42393         0.358759     -0.705882      0.075391
O	      4.05234      8.32492      6.27802         0.215794      0.065876     -0.024527
O	      4.09577      6.05915      8.46168         0.493156      1.601055      0.155765
O	      6.13452      6.27516     10.34393        -0.005159     -0.077697      0.113294
O	      8.18087      8.45252     10.35470         0.184731     -0.042585      0.841555
