# total energy = -206.08496521 eV
 
CRYSTAL
PRIMVEC
-0.016657 6.297811 6.260653 
6.035471 -0.027851 6.271195 
4.003661 4.185665 0.001705 
PRIMCOORD
36 1
Li	      7.94306      2.18238      6.17557        -0.033631      0.034715     -0.077434
Li	      6.01869      4.14288      2.15213         0.026198      0.015369      0.049452
Li	      8.01073      4.05861      4.28633        -0.019293     -0.056339      0.008795
Li	      6.12261      8.27839     10.39030        -0.030167     -0.018528      0.104700
Li	      8.00616      4.12214      8.31214        -0.084333      0.008627      0.046412
Li	      6.03377      4.16023      6.31923         0.020817      0.038610     -0.013110
Li	      7.95700      6.41486     10.36374        -0.001521     -0.086468      0.038916
Li	      6.02382      8.34511      6.37305         0.005753     -0.015386     -0.094478
Li	      6.06825      6.29867      8.45760         0.020977     -0.079157      0.006573
V	      4.01177      4.18257      4.15082        -0.378332      0.144444     -0.165648
V	      3.92529      6.36929      6.36310         0.268442     -0.090333     -0.203437
Cr	      8.00453      6.20412      6.28672        -0.346118      0.401995     -0.026002
Co	      6.03629     -0.00773      6.28280        -0.314204      0.704143     -0.463110
Co	      2.00170      2.09420      4.15297        -0.106361     -0.088962      0.163180
Ni	      6.06712      2.10070      8.30555        -0.009629      0.123085      0.024854
Ni	      6.02432      4.25593     10.40569         0.321632     -0.008913     -0.018586
Ni	      4.05199      2.09183      2.12656         0.131365      0.020164     -0.030721
Ni	      7.97281      8.30702      8.43038         0.092700      0.071855     -0.117313
O	      2.03597      2.07882      2.24899         0.174467     -0.027340     -0.047711
O	      4.03111      4.16971      2.03669        -0.016027     -0.051658      0.657186
O	      3.93952      2.18037      4.20884        -0.110558      0.137813      0.040320
O	      5.85202      4.31399      4.16027         1.084119      0.351073      0.025970
O	      5.96121      2.04690      6.26541         0.238499     -1.087885      0.005299
O	      8.06684      4.27028      6.26834         0.845263     -0.250858      0.121908
O	      2.10544      4.06986      4.14634        -0.706791     -0.349237     -0.035658
O	      4.06120      6.22506      4.25127         0.120144     -0.276379      0.029947
O	      3.99979      4.23544      6.17122         0.001438     -0.132959     -0.560190
O	      5.92241      6.26919      6.11515        -0.050591     -0.057088     -0.010493
O	      5.87547      4.13764      8.39782         0.149116      0.059205     -0.139246
O	      8.01962      6.30641      8.24145        -0.109635     -0.038601     -0.018169
O	      2.16285      6.26900      6.23387        -0.561769     -0.037584      0.049848
O	      3.99809      8.20295      6.26253        -0.006922      0.454527      0.099804
O	      4.06056      6.25828      8.13351         0.005590      0.041956      0.053045
O	      6.07906      8.36587      8.37041        -0.428366     -0.066111      0.029524
O	      6.05261      6.21953     10.70495        -0.095825      0.192002      0.170135
O	      8.04243      8.39439     10.34537        -0.096448      0.020204      0.295440
