# total energy = -102.27462409 eV
 
CRYSTAL
PRIMVEC
-0.000609 2.123354 2.157169 
3.899026 -0.000102 -0.000668 
0.002338 9.209918 -9.346232 
PRIMCOORD
16 1
Li	     -0.00016      2.44524      1.81917         0.000116     -0.005299      0.009030
Li	      1.94990      2.55065     -0.39842         0.000002     -0.017439      0.008514
Li	      1.94826      4.36186     -2.17747         0.001006      0.008121     -0.012021
Li	      1.95083      6.77950     -4.68105         0.000876     -0.007155      0.007440
Ti	      3.88388      4.72395     -4.59656        -0.040488     -0.049391      0.237550
Ti	      1.95175      9.04408     -7.09995        -0.000065      0.208446     -0.160466
Ni	      0.00074      2.12043     -2.10105         0.000435      0.118533     -0.107422
Ni	      0.00206      8.82543     -4.73601         0.005959     -0.048448      0.042215
O	      0.00382      6.72229     -4.77671        -0.000784     -0.135569      0.107499
O	      1.95184      9.04751     -4.99162        -0.005286      0.029124     -0.051212
O	      0.00305      4.87828     -2.74245        -0.001685      0.069403     -0.251595
O	      1.95713      4.76680     -4.82407         0.035904      0.008440      0.004435
O	      0.00034      2.23755     -0.09308         0.001180     -0.130970      0.105825
O	      1.95029      2.42667     -2.40225         0.000212      0.024948     -0.034452
O	      0.00227      8.81966     -6.87762         0.002098      0.095395     -0.085317
O	      1.95133     10.94092     -6.84933         0.000519     -0.168139      0.179976
