# total energy = -210.64621496 eV
 
CRYSTAL
PRIMVEC
0.020315 6.307623 6.159449 
6.301867 0.016086 6.163907 
4.181596 4.188077 0.030989 
PRIMCOORD
36 1
Li	      4.24488     10.35113      6.20029         0.049056      0.005609      0.071287
Li	      2.24386      8.41376      6.16053        -0.022697     -0.027336      0.083084
Li	      8.41827     10.48494     10.30532        -0.014130      0.054576     -0.007165
Li	      6.25644      6.32595      4.20317         0.016130     -0.002887     -0.056895
Li	      4.16756      4.22745      4.13323         0.054689     -0.033751     -0.082515
Li	      6.22594      4.33587      6.10435         0.017183     -0.024810     -0.110554
Li	      4.22868      8.41115      4.21650        -0.049722      0.003485      0.079850
Li	      6.30305      8.35135      6.15690        -0.018288      0.035596      0.040851
Li	      6.26891      6.38016      8.16024        -0.054586      0.020368     -0.000415
V	      6.29223      2.05880      4.25389        -0.419761      0.287570      0.176566
V	      8.13665      4.15959      8.19145        -0.105333      0.050019     -0.215603
Cr	      4.24484      6.31260      6.16044         0.051325      0.098843      0.220476
Co	      2.14913      6.29374      8.21883        -0.070836      0.159184      0.165195
Co	      4.27428      8.43358      8.18502        -0.074172     -0.031092      0.069452
Co	      4.18647      6.18558      2.12238         0.031408     -0.037006     -0.089083
Cu	      2.10318      6.30081      4.17500        -0.067428     -0.064631      0.150003
Cu	      8.35905      8.38469      8.23600         0.138427      0.082440     -0.201758
Ni	      8.25408      6.34963      6.14675         0.012947     -0.037105     -0.224039
O	      2.09114      2.27482      2.11831         0.704392     -0.012926      0.067359
O	      4.32686      4.10623      2.05391        -0.032068     -0.214022      0.018029
O	      4.39302      2.08955      4.03563         0.058045     -0.053647     -0.234419
O	      6.34533      3.98884      4.00619         0.053648     -0.100704      0.217523
O	      6.25022      2.16674      6.04055         0.078173     -0.051120     -0.027839
O	      8.38122      4.20392      6.37175        -0.007515      0.010126      0.010054
O	      2.09446      4.29487      3.87672         0.039738      0.076393      0.089907
O	      4.08201      6.31759      4.17062         0.043813     -0.057543     -0.111719
O	      4.20307      4.25408      6.27279        -0.025821      0.068832      0.077262
O	      6.24942      6.31676      6.12919        -0.152132     -0.028448     -0.009207
O	      6.34792      4.19092      8.24020         0.108925     -0.125625     -0.003703
O	      8.45817      6.05658      8.11210        -0.011757      0.028795      0.281533
O	      2.21744      6.33773      6.35463        -0.003892      0.068911     -0.454091
O	      4.23478      8.34878      6.28258         0.031797     -0.141837      0.226545
O	      4.13186      6.49900      8.20439         0.137921      0.270203     -0.169798
O	      6.32903      8.39334      8.36044        -0.647988     -0.193000      0.013813
O	      6.38276      6.50236     10.30644         0.033413     -0.122251     -0.024785
O	      8.26427      8.35062     10.21102         0.117095      0.038792     -0.035201
