# total energy = -208.98104061 eV
 
CRYSTAL
PRIMVEC
0.030795 6.054307 6.248087 
6.281469 0.017268 6.261478 
4.206462 4.063982 -0.007194 
PRIMCOORD
36 1
Li	      2.20682      8.01027      6.31838         0.055519     -0.094455     -0.203346
Li	      2.12276      6.06718      8.28853        -0.006670      0.008617      0.085133
Li	      4.21468      8.09596      8.23087         0.078324     -0.029170      0.022444
Li	      6.23244      2.05748      4.18895         0.054462      0.017971      0.163284
Li	      4.22087      4.03386      4.17032         0.041768      0.071752     -0.054115
Li	      6.19206      4.01840      6.24202        -0.064548      0.052620     -0.010655
Li	      4.26661      8.09225      4.25404        -0.105263     -0.016044     -0.046290
Li	      4.17250      6.09806      6.29004         0.024637     -0.014328     -0.035935
Li	      4.18551      4.05782      8.26145         0.047282      0.029323      0.139745
V	      8.27845      4.00985      4.21490         0.037869     -0.399681      0.376486
V	      6.23080      6.12898      8.38625        -0.350474     -0.594775     -0.192275
Cr	      8.41989      4.05945      8.30618        -0.092865      0.162039     -0.160920
Co	      6.30702      2.05901      8.31786         0.171604      0.042296     -0.176776
Co	      4.18474      2.05575      6.26746        -0.041279      0.101099     -0.151908
Co	      2.25058      6.16305      4.21786         0.149285     -0.403804      0.312283
Ni	      0.09204      6.02184      6.25118         0.040034      0.172698     -0.081754
Ni	      2.14321      4.03714      6.23218        -0.229671      0.063279     -0.050469
Ni	      2.08676      2.05814      4.14666         0.130245     -0.149238      0.362682
O	      2.11228      2.08959      2.09687        -1.142696     -0.239799     -0.091301
O	      4.12758      4.14555      2.05199         0.273538      0.640160      0.097464
O	      4.15784      1.93934      4.35207         0.039406      0.029202      0.012922
O	      6.48385      4.04897      4.18200        -0.267066      0.036800     -0.128307
O	      6.11988      2.04586      6.41399         0.011889     -0.107056     -0.016525
O	      8.45012      4.13478      6.22977        -0.074607      0.095762      0.165814
O	      2.11857      4.19037      4.04908         0.131504      0.307873      0.411608
O	      4.24127      6.11585      3.94355        -0.782935     -0.125488      0.215757
O	      4.05798      3.96263      6.22942         0.390904     -0.222001      0.000075
O	      6.40212      6.16402      6.26404         0.170974     -1.114242      0.213638
O	      6.39454      4.15595      8.26233        -0.069880     -0.342719      0.116982
O	      8.31486      6.07559      8.26804         0.838954      0.066010      0.430254
O	      2.15514      5.95294      6.18929         0.138791      1.496117     -1.006757
O	      4.45493      8.08965      6.23464        -0.387441     -0.117003      0.117158
O	      4.30528      6.02603      8.49966         0.174176      0.069907     -0.250538
O	      6.31701      7.93037      8.33551        -0.001776      0.354824     -0.336158
O	      6.15627      6.06866     10.36473         0.549487      0.102866     -0.206512
O	      8.39297      8.05645     10.49516         0.066520      0.048589     -0.043189
