# total energy = -211.16953046 eV
 
CRYSTAL
PRIMVEC
0.059235 6.113913 6.294400 
6.203769 0.021449 6.332708 
4.130743 4.095635 0.019534 
PRIMCOORD
36 1
Li	      6.33508     10.20138      8.49726         0.024971     -0.036022      0.137094
Li	      4.11368      6.16528     10.38987        -0.115392     -0.007862      0.006140
Li	      4.17324      4.10043      4.32890        -0.031436      0.000694      0.146091
Li	      8.19015      6.18448      6.46706        -0.046256      0.088577      0.009415
Li	      6.17770      4.21368      6.25754        -0.133950      0.118319      0.011745
Li	      8.32203      6.11296     10.48719         0.111371     -0.035095     -0.139831
Li	      6.33908      8.07896      6.37932         0.136673     -0.071882      0.020826
Li	      4.28515      6.06637      6.38742         0.186129     -0.147172      0.011831
Li	      6.22765      6.17460      8.26156         0.033734     -0.048693     -0.205229
V	      0.13760      6.08452      6.32512        -0.661578      0.108258      0.262557
V	      6.23560      4.08046     10.48683         0.173636     -0.916155     -0.326316
Cr	      6.16731      2.11920      4.22302        -0.263823      0.115098     -0.174083
Co	      4.21256      8.11207      8.38348         0.267790     -0.895437      0.016998
Co	      6.20367      2.06986      8.41280        -0.024384      0.063202      0.155105
Co	      8.29534      4.12760      8.43607        -0.273286      0.349140      0.243819
Co	      4.12564      4.17544      8.32810        -0.038150     -0.093288      0.127436
Cu	      6.29992      6.08918      4.31855         0.121883     -0.142420      0.352685
Ni	      8.25952      2.07302      6.33963        -0.004251      0.211791     -0.077041
O	      6.27431      6.14913      6.21534        -0.063480      0.036182      0.153244
O	      2.12697      2.15594      2.09421        -0.758496     -0.092239     -0.136747
O	      4.01707      3.99381      2.04848         0.116955      0.926653     -1.190997
O	      4.16055      2.02955      3.99464         0.418020      0.078264      0.867338
O	      6.15190      4.07330      4.21410        -0.039816     -0.176469      0.027088
O	      6.21841      1.98945      6.26621         0.026946     -0.839477      0.041461
O	      8.41346      4.08520      6.50722         0.560189      0.114708     -0.056879
O	      2.01199      4.03581      4.04955        -0.010471      0.347307     -0.015124
O	      4.20490      6.30277      4.21700        -0.478013      0.258465      0.054793
O	      4.15445      4.11315      6.51950        -0.051431      0.060890     -0.257249
O	      6.32836      4.15327      8.55305         0.230325     -0.015925      0.029909
O	      8.36978      6.10346      8.48719         0.101256     -0.231694      0.002358
O	      1.92081      6.13237      6.33869        -0.338760     -0.155835      0.010307
O	      4.15392      8.19831      6.31429         0.212656      0.845478     -0.829126
O	      4.19009      6.14287      8.40578        -0.074318     -0.226637     -0.347766
O	      6.15360      8.15680      8.54220         0.622374      0.068311     -0.077639
O	      6.22001      6.04228     10.67747         0.068483      0.281765      0.877590
O	      8.31732      8.18000     10.43497        -0.006102      0.059201      0.268198
