# total energy = -212.15401391 eV
 
CRYSTAL
PRIMVEC
-0.075445 6.136593 6.296975 
6.223933 -0.035248 6.255729 
4.133500 4.048121 -0.007832 
PRIMCOORD
36 1
Li	      4.14032      0.03139      4.17098         0.116905     -0.045976      0.049472
Li	      6.18074      2.01121      4.17314         0.050058     -0.132651      0.026868
Li	      8.10617      4.12265      8.35395         0.006360     -0.086839      0.127430
Li	      4.10204      4.05469      4.29732        -0.061454     -0.018312     -0.011783
Li	      6.13165      4.10490      6.33995         0.014812     -0.133335     -0.033872
Li	      6.17593      4.01556     10.37974         0.011809      0.174741      0.156936
Li	      6.25293      8.02413      6.28029        -0.118905      0.146856     -0.127020
Li	      4.20830      6.07116      6.24208        -0.116635      0.088228     -0.012927
Li	      6.17033      6.04991      8.26706        -0.174075      0.081653      0.130483
V	      6.10373      6.08542     12.46861         0.546735     -0.099128     -0.943187
V	      6.24813      4.00976      2.20188        -0.115393     -0.055974     -0.302863
Cr	      4.13631      4.03932      8.36798        -0.312119      0.245267      0.533778
Co	      8.23138      8.13958     12.53942        -0.061730     -0.259867     -0.305755
Co	      4.08823      8.13768      8.36893         0.021020      0.038000     -0.503770
Co	      2.04719      2.15402      4.22752         0.109636      0.143832     -0.465632
Co	      2.09478      6.00368      4.20355        -0.575844      1.650563      0.420588
Cu	     10.30457      6.10597      8.38372        -0.055741     -0.048691     -0.016656
Cu	      8.16816      6.09416      6.25832         0.113910     -0.343994     -0.081042
O	      2.24224      1.99197      1.93603        -0.074803      0.041514      0.019232
O	      4.26585      3.98663      1.92477        -0.050402     -0.144523      0.233722
O	      4.01053      2.05406      3.94256        -0.142685     -0.040154      0.419497
O	      6.16862      4.08602      3.96939         0.048675      0.128932      0.265884
O	      6.31444      1.90652      6.35721        -0.027967      0.685700      0.210534
O	      8.41569      3.99725      6.24207        -0.649516      0.095217      0.150221
O	      2.04790      4.21300      4.21587         0.089111     -1.184680     -0.090665
O	      4.19649      6.08762      4.07524         0.024159     -0.037561      0.152769
O	      4.11068      3.96518      6.40768         0.088401      0.093848     -0.144331
O	      6.23427      6.06747      6.18902         0.090785     -0.073307     -0.063129
O	      6.05172      4.04005      8.38144         0.221451     -0.167470     -0.072237
O	      8.13681      6.13446      8.48156         0.361052     -0.323360      0.117686
O	      1.92927      6.23370      6.36202         0.341576      0.042371     -0.061062
O	      3.95217      8.21889      6.37136        -0.126637     -0.482666      0.344184
O	      3.97365      6.10096      8.35269         0.207393      0.130724     -0.020882
O	      6.11067      8.21793      8.37155        -0.017287      0.051793     -0.037187
O	      6.19047      6.07998     10.66834         0.053692      0.027125      0.157397
O	      8.21458      7.95892     10.54983         0.163655     -0.187876     -0.222682
