# total energy = -213.85976051 eV
 
CRYSTAL
PRIMVEC
0.010440 6.224663 6.184842 
6.170694 0.005829 6.189584 
4.116178 4.155134 0.001534 
PRIMCOORD
36 1
Li	      6.15969      2.06699      4.15153         0.011737      0.007766     -0.003332
Li	      6.08109      2.15054      8.21072         0.028784      0.001289      0.040362
Li	      4.11392      4.14507      4.17602        -0.006456      0.044981      0.061932
Li	      6.06925      4.09439      6.25449        -0.053678     -0.060401     -0.014582
Li	      6.16965      4.16735     10.26398         0.018235     -0.010968     -0.014930
Li	      8.25045      6.26452     10.21009         0.038511      0.021479      0.001159
Li	      4.13844      6.15334      6.23430        -0.015901     -0.095957      0.021746
Li	      4.18938      4.04970      8.19777        -0.034344      0.012762     -0.028793
Li	      6.24858      6.21738      8.24995         0.012680      0.042508     -0.001851
V	      8.27564     10.28558     10.27507        -0.027906     -0.070344     -0.190550
V	      6.02388      6.24926      4.17008        -0.210462      0.006379     -0.021031
Cr	      0.03715      6.24263      6.17744         0.197224     -0.023449      0.076817
Co	      6.18190     10.36582      8.25172         0.007120     -0.030083      0.005740
Co	      4.15631      8.29482      8.24971         0.034305     -0.012484     -0.012100
Co	      8.05678      4.29366      8.31109        -0.067366      0.069566      0.090197
Co	      2.09898      4.17517      6.18634         0.055240      0.054563      0.000684
Ni	      2.06717      8.29400      6.18453         0.013456     -0.067687     -0.001689
Ni	      4.16930      2.17665      6.24700        -0.012316     -0.047407     -0.075521
O	      2.19240      1.99706      2.09182         0.064378     -0.029893      0.081860
O	      4.17436      4.00521      2.02420         0.003570     -0.062334      0.030983
O	      4.01711      1.93835      4.04019         0.022619      0.051117     -0.058237
O	      6.22296      4.21819      4.01384        -0.012492     -0.014012     -0.023445
O	      6.21867      1.99732      6.19176        -0.044924      0.026419      0.019142
O	      8.29353      4.17351      6.14592        -0.024293      0.062743      0.043535
O	      2.08935      4.05056      4.18093        -0.025822      0.045882     -0.110716
O	      4.26846      6.21284      4.09988         0.185361      0.012963     -0.014830
O	      4.00405      4.15530      6.20176        -0.092136      0.104376     -0.004174
O	      6.21459      6.38909      6.09274        -0.059909      0.034619      0.036239
O	      6.28710      4.14508      8.23733         0.141024     -0.000199     -0.029197
O	      8.25810      6.17554      8.26310         0.014762     -0.104240      0.089674
O	      2.04477      6.17254      6.29859        -0.056216     -0.063950      0.029806
O	      4.18229      8.36035      6.31415         0.059405     -0.017236      0.035882
O	      4.01876      6.33204      8.31374        -0.028504      0.045769     -0.034837
O	      6.07855      8.43768      8.13095        -0.072552      0.029995      0.034324
O	      6.08239      6.24591     10.36802        -0.052480      0.018662      0.026645
O	      8.23394      8.47032     10.31352        -0.010652      0.016804     -0.086913
