# total energy = -214.61059160 eV
 
CRYSTAL
PRIMVEC
-0.020866 6.226293 6.087767 
6.305978 -0.047625 6.115027 
4.174256 4.137981 -0.001179 
PRIMCOORD
36 1
Li	      2.14771      8.26812      6.08579         0.016917     -0.097006      0.015524
Li	      2.02239      0.11279      2.03295         0.055733      0.005545     -0.049233
Li	      6.22225      2.08327      4.11769         0.063805     -0.054587     -0.059846
Li	      6.28778      6.12653      4.13912         0.047222      0.043514     -0.015223
Li	      4.29396      4.12310      4.11920        -0.048314     -0.036495      0.004186
Li	      4.17079      2.06635      5.97124        -0.053581      0.005956      0.032896
Li	      4.14307      8.23765      4.20894         0.011149      0.068146     -0.078134
Li	      6.16855      8.27798      6.03893         0.043728      0.059259      0.008492
Li	      4.19633      6.33133      6.01030        -0.085036     -0.045654      0.095966
V	      2.12292      4.08960      2.06483        -0.055732      0.065239      0.462390
V	      8.23313      8.23400      8.05271         0.063716      0.016689      0.272160
Cr	      8.38163      4.12775      4.11138         0.024112     -0.197496      0.024583
Co	      4.21441      8.27626      8.11210        -0.083136      0.001721     -0.183684
Co	      0.01798      2.08981      2.05518        -0.230293     -0.177497      0.157386
Co	      6.27650      4.08503      6.09279        -0.063644      0.204540     -0.168343
Co	      2.10922      6.24699      4.20564         0.047157     -0.092569     -1.175408
Co	      6.25697      6.14121      8.11715         0.195469     -0.154960      0.097810
Ni	      6.32125      6.18539     12.15904         0.578042      0.012972      0.005552
O	      1.97994      2.18928      2.04267         1.178130      0.222811      0.139219
O	      4.09046      4.28032      1.99841        -0.317392     -0.938509      0.170340
O	      4.19379      1.95900      3.99233         0.081961      0.048875     -0.258025
O	      6.40507      4.08995      4.17127        -0.129320     -0.018710      0.015803
O	      6.32100      2.14873      6.24119        -0.151704      0.148609     -0.130025
O	      8.44622      4.14421      6.19581        -0.178963      0.021597     -0.128550
O	      2.05180      4.22337      3.86678        -0.055687     -0.312877     -0.269058
O	      4.09021      6.20529      3.93897        -0.299239      0.243892      0.308951
O	      4.18003      4.07970      6.25688         0.064740     -0.067385     -0.088783
O	      6.26457      5.97589      6.21326         0.085613     -0.015116     -0.009533
O	      6.30316      4.10088      8.06197         0.021128      0.557539     -0.057452
O	      8.31063      6.18715      8.20554        -0.465209     -0.043789      0.330456
O	      2.07645      6.24112      6.00906        -0.114052      0.039309      0.138903
O	      4.18082      8.35669      6.17454        -0.046939     -0.175239      0.364949
O	      4.28468      6.07519      8.18978        -0.034248      0.186993      0.041589
O	      6.33188      8.07112      8.07847        -0.225497      0.057329      0.056254
O	      6.25505      6.18180     10.07564         0.051758     -0.010100      0.023006
O	      8.39117      8.25107      9.99089         0.007606      0.427453     -0.095118
