# total energy = -217.04879566 eV
 
CRYSTAL
PRIMVEC
0.035945 6.177028 6.343603 
6.211660 0.013511 6.363965 
4.181614 4.173136 -0.031136 
PRIMCOORD
36 1
Li	      4.19381      4.17005      0.13251        -0.038777     -0.040417      0.070822
Li	      8.19343      2.17611      6.38948         0.005853      0.065628     -0.133113
Li	      6.07717      4.14322      2.01943        -0.037178      0.148536     -0.063411
Li	      4.21753      2.32504      1.97221        -0.058095     -0.110412     -0.025492
Li	      4.19219      6.04220      1.90698         0.108526      0.010490     -0.024596
Li	      2.34603      4.13917      2.00780        -0.066921     -0.029718     -0.020744
Li	      4.16604      4.14129      3.91715        -0.019872      0.029283      0.102146
Li	      6.34764      4.07697      6.32327        -0.031873     -0.006039      0.065974
Li	      4.20218      8.35312      4.36405        -0.124956     -0.092591     -0.021311
V	      1.97152      2.08251      3.99320        -0.102627      0.077043     -0.213147
V	      4.25165      4.19404      8.55985        -0.227331     -0.905804     -0.228255
Cr	      8.36165      6.19950      6.35719         0.083692      0.201594     -0.003631
Co	      6.23318      6.21947      8.48242         0.021488      0.184250      0.320122
Co	      8.31917      4.20432      4.27288        -0.131473     -0.234426     -0.244398
Co	      6.17972      2.14428      4.28511         0.261544      0.178992      0.043353
Co	      2.06703      6.12086      4.21205         0.315858      0.101380      0.066759
Co	      6.22118      8.29080      6.35852         0.267476      0.169423     -0.186291
Co	      4.14592      6.24486      6.37096        -0.116721     -0.094177     -0.075943
O	      4.19857      4.16823      2.07564         0.067286      0.013476     -0.024153
O	      2.09013      2.09573      2.27896        -0.056762     -0.045864     -0.120111
O	      4.03292      1.95875      4.36704        -0.068567     -0.003851      0.051561
O	      6.38934      4.36129      4.27278         0.072347     -0.035184     -0.042180
O	      6.14159      2.13835      6.27432        -0.089143     -0.064160     -0.004960
O	      8.34447      4.23370      6.18112        -0.013427     -0.018620      0.120740
O	      2.14934      3.91186      4.26864         0.009388     -0.036330      0.022907
O	      4.37565      6.17442      4.24256         0.109738      0.004007     -0.050354
O	      4.00627      4.10449      6.59080        -0.271968     -0.037225     -0.957401
O	      6.27828      6.30975      6.40066        -0.003475     -0.063388      1.282817
O	      6.01631      4.13657      8.41395         1.555848      1.252286     -0.000347
O	      8.34423      6.35925      8.47028        -1.484552     -1.111004     -0.057024
O	      2.15075      6.03874      6.18930        -0.149355     -0.034658      0.126812
O	      4.36213      8.22760      6.34018         0.183875      0.036255      0.020101
O	      4.11107      6.07069      8.59370         1.298057      1.657042      0.269092
O	      6.43490      8.27827      8.52501        -0.970998     -1.481542      0.153636
O	      6.17555      6.22058     10.49197        -0.123004     -0.008606     -1.410590
O	      8.36028      8.36481     10.43725        -0.173898      0.324332      1.190607
