# total energy = -202.14011475 eV
 
CRYSTAL
PRIMVEC
0.035665 6.088006 6.328666 
6.301912 -0.006923 6.371869 
4.171073 4.057120 0.025048 
PRIMCOORD
36 1
Li	      4.23716     10.06158      6.41576         0.041696      0.048367      0.076332
Li	      4.20220      8.19283      8.29218         0.022838      0.007802     -0.091221
Li	      2.18134      4.00886      2.20571         0.028940      0.039861      0.036385
Li	      6.32397      4.08206      6.34497        -0.023692      0.009311      0.036897
Li	      4.22808      8.12100      4.35829         0.023431      0.055881     -0.055640
Li	      2.15823      6.04065      4.36178        -0.050706      0.020083      0.027912
Li	      2.04896      4.07193      6.24494         0.012346      0.016294      0.031722
Li	      4.15385      6.17054      6.21675        -0.002933     -0.041045     -0.017739
Li	      8.33523      8.06305      8.53584        -0.029412     -0.023058      0.010769
V	      4.32591      2.06190      6.48537        -0.095046      0.130557      0.041999
V	      6.11716      5.98438      8.45320         0.055421     -0.130127     -0.033608
Cr	      6.27343     10.10197      8.40696         0.111608     -0.015691     -0.019012
Cu	      2.24767      8.10748      6.34071        -0.065901      0.046449      0.011630
Ni	      8.37180      4.03710      4.30641        -0.024753      0.043992     -0.055117
Ni	      6.35781      8.10818     10.56707        -0.054478     -0.035869      0.053577
Ni	      4.20729      6.11410      2.19450        -0.082778      0.123702     -0.035354
Ni	      2.08242      2.07740      4.21337         0.028047     -0.016366      0.047907
Ni	      4.15645      4.06077      4.22061         0.060184     -0.019955      0.040625
O	      4.16479      8.13516      6.31587         0.056447      0.021339     -0.005414
O	      2.08290      1.97535      2.05738         0.124047      0.001794      0.028829
O	      4.29481      4.07945      2.17394        -0.004049     -0.084730     -0.132280
O	      4.16202      2.03049      4.43347         0.053695     -0.038560     -0.000078
O	      6.26910      4.07572      4.12782         0.006485     -0.010631      0.038434
O	      6.14984      2.02590      6.41204         0.050413     -0.003240     -0.065807
O	      8.35837      4.20514      6.32569         0.016166      0.041574      0.077734
O	      2.19921      4.02442      4.23798        -0.118139      0.103978     -0.000838
O	      4.25014      6.00820      4.20107        -0.074756      0.161105      0.123043
O	      4.22141      3.85527      6.30353         0.041801     -0.129949      0.128297
O	      6.39207      6.09297      6.57218         0.025820     -0.017345     -0.011143
O	      6.27490      4.19862      8.47994        -0.054213      0.196877     -0.008989
O	      8.33744      6.07836      8.33776        -0.074063     -0.037639      0.023578
O	      2.14817      6.14074      6.45272        -0.063531     -0.044656     -0.046324
O	      4.30362      6.05665      8.45527        -0.050862     -0.009913     -0.017314
O	      6.30481      8.05027      8.51270        -0.040090     -0.122530     -0.098061
O	      6.31417      6.12229     10.31210         0.038670     -0.153458      0.032164
O	      8.34118      8.14932     10.76391         0.111343     -0.134205     -0.173896
