# total energy = -202.02535514 eV
 
CRYSTAL
PRIMVEC
0.041914 6.317538 6.244201 
6.151589 0.051338 6.234525 
4.104978 4.208825 0.030519 
PRIMCOORD
36 1
Li	      6.21838     10.52076      8.35263        -0.006524      0.100985      0.044528
Li	      8.24132     10.48330     10.37894        -0.017843      0.009410     -0.028655
Li	     10.15644      6.42347      8.33992        -0.023413      0.041129     -0.032701
Li	      4.08211      4.18849      4.19371         0.096436      0.054883      0.041287
Li	      6.10505      4.26256     10.27524        -0.009700     -0.035314     -0.074907
Li	      8.24021      6.43617     10.30217        -0.068546     -0.001154     -0.054416
Li	      4.08766      6.26398      6.33849        -0.039451     -0.033486      0.081067
Li	      4.17415      4.27263      8.37905        -0.015864      0.001152     -0.017572
Li	      6.22111      6.27527      8.40846         0.029459     -0.036889      0.088190
V	      6.22478      6.34514     12.36077        -0.451028      0.200770      0.209313
V	      5.97986      6.32053      4.21766        -0.338493      0.150461     -0.309574
Cr	      4.21282      8.35338      8.38034        -0.133195      0.160341     -0.105465
Cu	      6.22141      8.49917     10.37404         0.209228     -0.156547     -0.071732
Cu	      2.15790      4.27423      6.23084        -0.130295      0.108805      0.225139
Ni	      8.27308      8.46870     12.40932         0.046949     -0.041815      0.101131
Ni	      8.20915      4.29491      8.35667        -0.043761     -0.005206      0.023568
Ni	      4.12830      2.17415      6.27579         0.135285     -0.119487      0.112785
Ni	      6.14476      4.26157      6.31453         0.097428     -0.011760     -0.076075
O	      8.13359      8.45117     10.41772        -0.058033     -0.004573     -0.249136
O	      2.18559      2.24580      2.21887        -0.199226     -0.294790      0.020708
O	      3.97071      4.09140      1.95421         0.511417      0.148151      0.355188
O	      4.22045      2.14533      4.08997        -0.034645      0.106889      0.057405
O	      6.17798      4.52663      4.23688         0.165073     -0.096345     -0.167612
O	      6.18702      2.08438      6.19397        -0.033844      0.127119     -0.026927
O	      8.27562      4.23244      6.30917        -0.316813     -0.060799     -0.338559
O	      2.10871      4.01817      4.20110         0.053351     -0.041113      0.012790
O	      4.26220      6.32454      4.13896        -0.331062      0.087611      0.143827
O	      4.10357      4.20480      6.31973         0.151057      0.152799      0.023226
O	      6.22977      6.36666      6.06861        -0.320708      0.094489      0.350331
O	      6.33788      4.28848      8.28247        -0.600353     -0.228152      0.113759
O	      8.19844      6.17222      8.33156         0.144798      0.353283      0.026012
O	      1.93500      6.32951      6.27104         0.936141     -0.076927      0.139011
O	      4.18032      8.50446      6.36628         0.014444     -0.421031      0.074497
O	      4.10116      6.57516      8.30686         0.077105     -0.240216      0.010132
O	      6.06300      8.52262      8.35795         0.493707      0.010991      0.167087
O	      6.15113      6.19864     10.63342         0.010922     -0.003662     -0.867649
