# total energy = -102.41607491 eV
 
CRYSTAL
PRIMVEC
-0.000147 2.136990 2.134667 
6.038452 4.315954 -6.446362 
-4.042527 2.164575 -2.161934 
PRIMCOORD
16 1
Li	      0.04777      0.05267     -0.05441         0.032204      0.013009     -0.011073
Li	     -2.06060      4.52162     -2.38229        -0.027075     -0.021134      0.024133
Li	      1.98368      6.38333     -4.24589        -0.002149      0.011523     -0.012330
Li	      0.05354      2.25883     -2.26025        -0.012502     -0.001212      0.006325
Ti	     -1.93572      2.19089     -0.05672         0.533792      0.226196     -0.230109
Ti	      4.08358      4.26562     -4.28521         0.117733     -0.104046      0.082244
Ni	     -0.04313      4.17762     -4.17466         0.042609      0.080878     -0.084187
Ni	      1.94861      4.23975     -2.10356        -0.015002      0.001882     -0.003908
O	      0.01849      6.60725     -4.46991         0.100024      0.150069     -0.135856
O	     -0.04072      4.34025     -2.20102        -0.112669     -0.096722      0.095713
O	      2.12000      4.29122     -4.28743         0.189553      0.073995     -0.075535
O	     -0.14731      2.09331      0.04303        -0.535177      0.003751     -0.008348
O	      2.04689      2.21387     -2.21312        -0.124986     -0.083960      0.084648
O	      1.93017      6.44607     -6.44103        -0.184061     -0.008845      0.009838
O	     -2.07323      1.94351     -1.94371         0.008118     -0.210948      0.215951
O	      4.00323      6.42712     -4.27760        -0.010411     -0.034437      0.042494
