# total energy = -200.48298502 eV
 
CRYSTAL
PRIMVEC
-0.083200 6.141283 6.276240 
6.293602 -0.022749 6.216678 
4.220837 4.079715 -0.039905 
PRIMCOORD
36 1
Li	      0.10279      6.03825      6.14215         0.007468     -0.009751      0.172472
Li	      2.16002      8.07340      6.29019         0.064894      0.146879      0.051627
Li	      2.09411      6.17085      8.17866        -0.021920      0.044568      0.046687
Li	      4.28676      6.06179     10.32374        -0.026242      0.021614      0.023688
Li	      0.02638      2.05897      2.07508         0.126148      0.000328     -0.047820
Li	      2.06781      2.02816      4.09208        -0.017213     -0.009677     -0.032713
Li	     10.38427      8.25457     10.53482         0.024508     -0.070375      0.091580
Li	      6.11801      8.25985      6.29524        -0.066003     -0.115438      0.018053
Li	      6.17120      6.16845      8.41330        -0.065324     -0.041534     -0.124264
V	      4.18547      4.08706      4.01636         0.236027     -0.403194     -0.030317
V	      6.33857      4.06979      6.31097        -0.006082     -0.005737     -0.021431
Cr	      2.08992      4.08748      2.08261        -0.031709     -0.425290     -0.197551
Cu	      6.27182      8.10832     10.36147        -0.035307      0.231831      0.054890
Cu	      8.34418      6.14890      6.23144        -0.024543     -0.216150     -0.122157
Cu	      8.20205      8.19015      8.39198        -0.090117      0.023941     -0.230654
Ni	      4.11308      8.10545      8.28571        -0.218436      0.037200     -0.010234
Ni	      8.31072      6.15008     10.40970        -0.275475      0.217764      0.477711
Ni	      4.09328      6.15703      6.27932         0.265934      0.090072     -0.043381
O	      6.09506      8.17308      8.36258         0.308223     -0.021442      0.102520
O	      6.30311      6.18828     10.42013         0.403720     -0.139452     -0.044395
O	      8.42687      8.15132     10.30546         0.068645     -0.311130      0.182399
O	      2.17580      2.14209      2.04837        -0.233451     -0.035304      0.060593
O	      4.13915      4.11939      2.19668         0.020282      0.104826     -0.015479
O	      4.08900      2.21314      4.12935        -0.008946     -0.006067      0.171633
O	      6.08203      3.99860      4.25515        -0.077685      0.063600     -0.102652
O	      6.21521      2.21462      6.15569         0.185672     -0.170636     -0.117167
O	      8.21706      4.16856      6.24710         0.127128     -0.051873     -0.076239
O	      2.23342      4.10771      4.09031        -0.165736      0.279342      0.040688
O	      4.17971      5.90427      4.21853        -0.179592      0.341907     -0.124719
O	      4.27261      4.02046      6.21440        -0.124625      0.164370     -0.041080
O	      6.20892      5.89705      6.17242        -0.111185      0.158342     -0.035984
O	      6.37774      4.02323      8.12718        -0.008908      0.056436      0.269339
O	      8.37298      6.11379      8.36778         0.067154      0.052650      0.084693
O	      2.09669      6.12912      6.14053        -0.256444     -0.128419     -0.350541
O	      4.17059      8.14724      6.32757         0.083364      0.130062     -0.347033
O	      4.09227      6.04471      8.29218         0.055774     -0.004265      0.267238
