# total energy = -200.91111169 eV
 
CRYSTAL
PRIMVEC
-0.032184 6.237466 6.725881 
5.925200 -0.004525 6.698240 
3.965778 4.153306 -0.015519 
PRIMCOORD
36 1
Li	      1.94038      6.24441      8.76774        -0.041150      0.010778      0.040163
Li	      1.89473      4.28401      2.59433         0.080367      0.022938      0.209540
Li	      5.92267      6.30677      4.59372        -0.047317      0.173155      0.060564
Li	      3.88718      4.20830      4.62924        -0.178981      0.074288     -0.001623
Li	      7.87584      6.24366      6.87533        -0.059016      0.022557      0.036001
Li	      0.05441      4.09978      4.36152         0.131202     -0.087051      0.039069
Li	      1.95655      6.14910      4.48011         0.072218     -0.221467      0.014491
Li	      1.93542      4.14730      6.47185         0.011496     -0.096253     -0.106094
Li	      5.97726      6.17585      8.72946        -0.045357      0.063794     -0.003360
V	      3.89458      2.25413      2.20437        -0.045092      0.268647      0.234200
V	      3.89811      6.22073     11.03121        -0.116426     -0.098483     -0.117552
Cr	      7.88106      8.25562      8.86830        -0.031481      0.092868      0.235328
Cu	      5.90790      6.26815     13.31672         0.006718     -0.009847      0.073898
Cu	      7.89405      2.07314      6.68041         0.047184     -0.061706     -0.004573
Cu	      3.98373      6.25232      2.43787         0.075102     -0.164967      0.568666
Cu	      5.92584      4.15545      6.72540         0.006703      0.231170     -0.060711
Ni	      5.91324      8.33056     11.16661         0.020850      0.037056     -0.090732
Ni	      3.91410      6.16801      6.54499         0.018856      0.032569      0.078488
O	      5.88915      6.02260      6.74960         0.201071      0.146993      0.030955
O	      1.88234      6.37854      6.75816         0.144251      0.075182     -0.059472
O	      2.10093      2.05217      2.34398        -0.056045     -0.042753      0.012988
O	      3.92570      4.04145      2.13498         0.007427     -0.102528     -0.036363
O	      3.96920      1.94168      4.17470        -0.143108     -0.076871      0.007492
O	      6.10388      4.16096      4.51725         0.082922      0.020105     -0.179567
O	      5.96265      2.27404      6.50291         0.066294     -0.238204      0.083533
O	      7.98148      4.07900      6.35380        -0.148178     -0.059273      0.096808
O	      1.95923      4.15950      4.54700        -0.061008      0.002299      0.041622
O	      3.94198      6.20692      4.56120        -0.023531      0.054894     -0.462236
O	      3.90849      4.16062      6.90695         0.027083     -0.078147     -0.154266
O	      5.89299      4.05362      8.87783        -0.045244      0.029137     -0.010608
O	      7.97373      6.30034      8.93659         0.061045      0.018562     -0.013551
O	      3.91272      8.14993      7.09060        -0.123980      0.042977     -0.089714
O	      3.94827      6.20725      9.15497         0.010680     -0.060314     -0.191049
O	      5.79704      8.31623      9.04994         0.071317     -0.023714     -0.129815
O	      5.78139      6.29218     11.33897        -0.060167     -0.042520     -0.089025
O	      7.92983      8.48342     10.91162         0.083295      0.044128     -0.063494
