# total energy = -201.63697715 eV
 
CRYSTAL
PRIMVEC
0.033704 6.062131 6.143557 
6.639827 -0.015885 6.194836 
4.397473 4.045158 0.019333 
PRIMCOORD
36 1
Li	      4.39725     10.02657      6.21122        -0.064026      0.048535     -0.014859
Li	      2.37855      8.13127      6.17887         0.102245      0.041077      0.108380
Li	      4.39571      8.04609      8.11854        -0.108892     -0.002898      0.049162
Li	      2.22532      3.93916      2.12338         0.007167     -0.087941     -0.016306
Li	      2.12066      2.08605      4.05613         0.028241     -0.001195     -0.039937
Li	      4.25295      4.07650      4.11249        -0.060342     -0.144990      0.027846
Li	      6.72687      4.03693      6.11009         0.013072     -0.025758     -0.037936
Li	      4.50589      8.01905      4.21178         0.153341      0.065693     -0.003180
Li	      8.74365      8.07803      8.26720        -0.028809      0.005803     -0.054161
V	      4.57745      2.05316      6.17188         0.139533     -0.000919      0.157280
V	      6.59285      5.88019      8.21438         0.144584     -0.134297     -0.235398
Cr	      6.35999      4.10875      2.05114         0.226738     -0.040566      0.044846
Cu	      8.87462     10.05261     10.34242         0.020320      0.054198     -0.066981
Cu	      6.75261      8.11622     10.24602        -0.282061      0.097813     -0.050561
Cu	      4.44759      6.12509      2.19646         0.070912     -0.004213      0.007586
Cu	      6.51470      8.08401      6.11714         0.090417      0.084225     -0.026891
Cu	      4.41944      6.04971      6.08920        -0.043042     -0.105978      0.018911
Ni	      2.27010      6.08123      4.11341        -0.193312      0.100112     -0.007514
O	      4.51070      7.98553      6.13934        -0.218723     -0.099302     -0.069348
O	      6.76975      6.17267     10.06217         0.190609     -0.037227      0.150069
O	      8.70080      8.12866     10.34657         0.114593     -0.116864     -0.059731
O	      2.27559      1.91536      2.07147         0.045090      0.381498      0.033867
O	      4.58049      4.09362      2.09467        -0.613636     -0.041521      0.090619
O	      4.58715      1.93472      4.30925        -0.000243      0.064877     -0.136166
O	      6.68912      3.97911      3.88655        -0.040318     -0.043283      0.149202
O	      6.36235      2.07306      6.44945         0.103526     -0.000860     -0.275191
O	      8.86932      4.19878      6.20016        -0.087816     -0.150330      0.108835
O	      2.18524      4.07848      4.22836         0.030459     -0.108704     -0.128655
O	      4.30410      6.05410      4.11636         0.139224      0.144599      0.122180
O	      4.40711      3.90489      6.14515         0.091423      0.221062     -0.045264
O	      6.87216      6.01248      6.31292         0.043459     -0.106306      0.121313
O	      6.61222      4.13746      8.27540         0.066290     -0.234487      0.099479
O	      8.58364      6.04941      8.16570        -0.001295      0.058066      0.095087
O	      2.22282      6.09128      6.30961        -0.002441      0.140975     -0.263977
O	      4.74182      6.03272      8.13706        -0.111949      0.050339      0.038167
O	      6.58907      8.09715      8.00808         0.035662     -0.071233      0.109227
