# total energy = -201.40399161 eV
 
CRYSTAL
PRIMVEC
0.030003 6.422679 6.143822 
6.304206 0.054339 6.119719 
4.236499 4.300329 0.002013 
PRIMCOORD
36 1
Li	      4.14060     10.49919      6.15702        -0.000762     -0.040739     -0.109416
Li	      2.34105      8.66888      6.16368        -0.039189     -0.028480     -0.092033
Li	      4.10530      2.26688      1.87959         0.018556     -0.142068      0.014277
Li	      8.30705      4.47613      4.14185         0.051197     -0.023142     -0.017006
Li	      6.25640      2.17996      4.16643         0.061745     -0.053026     -0.043963
Li	      2.23775      4.21307      1.96269        -0.034367     -0.014450      0.012779
Li	      4.27543      8.55564      4.24661        -0.016063      0.067982     -0.101517
Li	      6.15182      8.52852      6.14048         0.021286     -0.025237     -0.001332
Li	      4.30427      6.67979      6.09679        -0.015121     -0.013929      0.073170
V	      2.10381      6.37416      4.27107        -0.353729      0.195457      0.137108
V	      4.21142      4.40360      8.22192        -0.051576      0.165636      0.054482
Cr	      6.25800      4.29971      2.02683         0.341133     -0.052282     -0.142743
Cu	      6.31572      6.46393      4.09601         0.093293      0.058973      0.123799
Cu	      4.20887      4.27582      4.03576        -0.057667     -0.074840     -0.075622
Cu	      8.46944      6.41453      6.12342         0.145081     -0.071134      0.143636
Cu	      6.34035      6.52388      8.14607        -0.084546      0.184948     -0.036913
Cu	      0.04764      2.09484      2.01952        -0.080218      0.074648     -0.128603
Cu	      6.37102      4.30483      6.10000         0.117097     -0.059217      0.017744
O	      4.26511      8.55442      6.13337        -0.038337      0.085635      0.000007
O	      6.62937      6.52806     10.15023         0.011416      0.005402      0.055652
O	      2.03308      2.02282      2.12169         0.079460     -0.147889      0.008554
O	      4.32472      4.20623      1.94269        -0.203881      0.171726      0.165546
O	      4.07008      2.26411      4.14883        -0.167440      0.082944     -0.092377
O	      6.19156      4.17848      4.04814        -0.068426     -0.112780     -0.108882
O	      6.24973      2.30030      6.18285         0.071801     -0.045871      0.067695
O	      8.34519      4.43361      6.09374         0.157445     -0.120923      0.025803
O	      2.22800      4.58103      4.04260         0.045977     -0.032236     -0.073286
O	      4.18725      6.36253      4.05037         0.193378     -0.021266     -0.041087
O	      4.33162      4.17209      6.34809        -0.039683      0.066090     -0.085748
O	      6.41608      6.38491      6.11484        -0.141456      0.099034     -0.079625
O	      6.19517      4.55504      8.12679         0.025718     -0.198922      0.118407
O	      8.61649      6.67681      8.24529         0.058285     -0.160252      0.044257
O	      2.17912      6.47051      6.04206         0.007074     -0.025212      0.087320
O	      4.09243      6.23680      8.27030        -0.117844      0.022203      0.013334
O	      6.56732      8.59500      8.15434         0.003431      0.171826     -0.001596
O	      8.55310      8.41128     10.07012         0.006932      0.011393      0.068178
