# total energy = -206.12690049 eV
 
CRYSTAL
PRIMVEC
0.069465 6.016458 6.502639 
6.344134 0.044557 6.526473 
4.258193 4.053040 0.001936 
PRIMCOORD
36 1
Li	      6.46009      6.07150     12.91734         0.023217     -0.053890      0.018266
Li	      4.55611      6.05688     10.88531         0.020284     -0.035154     -0.010332
Li	      2.18856      3.94093      2.28873        -0.011456      0.009029     -0.026686
Li	      6.35818      6.04099      4.55109         0.038208      0.045029     -0.019886
Li	      6.40757      4.11874      6.36355        -0.024964     -0.009976      0.080422
Li	      6.48817      4.18311     10.82910        -0.009844     -0.029341     -0.046555
Li	      2.12551      3.96040      6.37106        -0.038639      0.061888     -0.041684
Li	      4.47663      6.09138      6.33526         0.033221     -0.019313      0.033527
Li	      6.47343      6.07394      8.72416         0.001010     -0.000880     -0.019499
V	      2.34568      8.05051      6.39569         0.342643      0.018469      0.036349
V	      4.30071      4.20581      8.51818         0.052174      0.086432      0.001078
Cr	      8.42632      6.00208      6.53676        -0.117244     -0.011437      0.080519
Fe	      4.25301      5.96041      2.13917        -0.050014     -0.033535     -0.191963
Cu	      6.33793      4.08002      2.24398         0.166305     -0.031374     -0.014622
Cu	      4.20838      2.02969      2.24712         0.114504     -0.118373     -0.186846
Cu	      4.19473      4.02178      4.33809         0.003445     -0.139551      0.141936
Ni	      6.33995      2.05553      4.45145         0.016457     -0.026653      0.003338
Ni	      8.47045      6.04993     10.82774         0.000224     -0.004408     -0.029623
O	      6.49241      6.10097     10.83884        -0.109923     -0.076170      0.070230
O	      1.97337      1.97976      1.91335        -0.167510      0.090649     -0.034937
O	      4.33570      3.93918      1.99491        -0.156978      0.313994     -0.034184
O	      4.23479      2.10918      4.41154         0.015826      0.106147      0.298720
O	      6.07308      4.04955      4.39188         0.004940      0.081624      0.012081
O	      6.28165      2.07202      6.61146        -0.042486     -0.016287      0.024757
O	      8.44957      3.97718      6.50265        -0.012674      0.081536      0.033415
O	      2.30353      4.00850      4.30700        -0.047321     -0.077805     -0.002923
O	      4.21125      5.90019      4.18568         0.043124      0.046125     -0.036865
O	      4.25394      4.05683      6.77471        -0.066111     -0.046350     -0.057403
O	      6.50543      6.07531      6.58171         0.006127      0.018890     -0.099650
O	      6.07245      3.98220      8.86750         0.096655      0.005981     -0.009065
O	      8.53379      6.16886      8.58992         0.081078     -0.070204      0.009303
O	      2.18337      6.24215      6.39463        -0.013821      0.034418      0.077116
O	      4.13302      8.03647      6.56745        -0.153706      0.019484     -0.267113
O	      4.28008      6.03294      8.73183        -0.058867     -0.172453      0.104837
O	      6.72883      8.15797      8.87197        -0.033612     -0.109155      0.008897
O	      8.50548      8.14357     11.05715         0.055729      0.062612      0.095049
