# total energy = -205.65871257 eV
 
CRYSTAL
PRIMVEC
0.035774 6.199957 6.347466 
6.182468 0.042841 6.340301 
4.147871 4.155200 0.001874 
PRIMCOORD
36 1
Li	      4.20664      8.27755      8.44919         0.120842      0.000869     -0.001681
Li	      4.17193      6.20289     10.55363         0.080626     -0.057566     -0.016923
Li	      6.28640      8.25709     10.56088         0.005000     -0.039928     -0.101868
Li	      2.06812      2.07288      4.18640         0.009377      0.068688     -0.043753
Li	      4.13983      4.18370      4.19737        -0.007185     -0.051749     -0.080255
Li	      6.24191      4.14468      6.23621         0.036138      0.024425     -0.170565
Li	      0.03916      4.18948      4.27499         0.013917      0.065373      0.055831
Li	      2.04711      4.18019      6.33788        -0.045124     -0.028354      0.042337
Li	      6.19817      6.28112      8.58826        -0.067596      0.107767      0.181390
V	      6.15424      2.16445      8.44655         0.316368      0.082531      0.378293
V	      3.98056      2.19725      6.15386        -0.250187     -0.265192     -0.645411
Cr	      6.28424     10.28618      8.58346        -0.024546     -0.357314      0.255985
Fe	      4.15949      6.30693      6.33784         0.111508     -0.056040      0.035609
Cu	      8.28781      8.34038     12.65444         0.215604      0.153251     -0.055654
Cu	      8.25941      4.24252      8.47951        -0.245434      0.000611      0.102970
Cu	      2.05894      6.18210      4.26373        -0.229051     -0.039534      0.061646
Cu	      8.26998      8.33345      8.53091        -0.014825     -0.080392      0.153842
Ni	      0.06370      6.16419      6.31105         0.030469     -0.213483     -0.130966
O	      6.36239      6.22548     10.63269        -0.315157      0.018487     -0.020665
O	      8.27022      8.12954     10.75559         0.071367      0.219154     -0.275224
O	      1.98009      1.99680      2.03258        -0.779774     -0.090150      0.145396
O	      4.24838      4.28367      2.08470         0.032343      0.201319      0.112654
O	      4.14826      2.05205      4.41098        -0.004392      0.045526      0.256822
O	      6.25363      4.22189      4.04866         0.008863      0.012212     -0.037479
O	      6.08437      2.09155      6.46307        -0.076474      0.130280      0.517050
O	      8.29828      4.37890      6.47991        -0.084187      0.194349      0.024677
O	      2.07211      4.29808      4.06105        -0.006391     -0.273100     -0.095093
O	      4.00023      6.19864      4.19598         0.416060      0.035447     -0.730725
O	      4.15405      4.01188      6.23831         0.053359      0.192445      0.098052
O	      6.29814      6.23891      6.30135        -0.076686     -0.006683     -0.013426
O	      6.11795      3.99441      8.46401         0.231320     -0.284071     -0.054725
O	      8.31957      6.33041      8.25248         0.514549     -0.027384     -0.160885
O	      2.18309      6.13384      6.58991         0.006250     -0.014219      0.222536
O	      4.19515      8.22142      6.38377         0.007152     -0.072595      0.059174
O	      4.14522      6.14585      8.39945         0.115258      0.303347     -0.064164
O	      6.27893      8.41549      8.51063        -0.169361      0.101672     -0.004802
