# total energy = -207.11504901 eV
 
CRYSTAL
PRIMVEC
-0.010250 6.829599 6.056508 
5.989601 -0.003149 6.050376 
3.991923 4.549409 -0.001872 
PRIMCOORD
36 1
Li	      9.95017     11.33823     12.08366        -0.038269     -0.059944     -0.027929
Li	      1.89495      2.17096      0.03518         0.043759     -0.085179     -0.033844
Li	      4.07607      6.95105     10.01755         0.025583      0.026082      0.001391
Li	      1.96904      2.33117      4.03877         0.000997     -0.005403      0.022109
Li	      3.87581      4.22795      4.03655        -0.007724     -0.053743      0.042344
Li	      4.01004      2.29669      6.05127        -0.000655     -0.038807     -0.049902
Li	      2.01322      6.84448      4.04231        -0.036201     -0.009575      0.046996
Li	      2.12858      4.75387      6.05243        -0.016907      0.108380     -0.039414
Li	      5.99912      6.70627      8.06254        -0.053152     -0.031102      0.021007
V	      6.00514      4.63338      5.88135        -0.021578      0.095776     -0.165887
V	      3.99035      9.23246      4.20292        -0.041272      0.302344      0.060837
Cr	      3.96550      2.23477      2.02459        -0.054842      0.215314     -0.070224
Fe	      1.95499      6.84725      7.99027        -0.081012     -0.092038      0.310126
Cu	      6.00477      9.07676     10.13304         0.138967      0.094261      0.070092
Cu	      9.97183      6.85246      8.09247         0.168992      0.203629     -0.049910
Cu	      7.98673      4.64525      8.09586         0.554874      0.042253      0.054789
Cu	      3.95992      6.79075      5.99259         0.085364      0.120160     -0.056622
Cu	      7.98041      8.88831      8.06979        -0.030828      0.262072     -0.029054
O	      2.01546      6.80072      6.07911        -0.044976      0.066065     -0.352254
O	      5.95701      6.46377     10.09446         0.037867      0.084899     -0.053285
O	      8.04956      9.10976      9.98710        -0.054032     -0.056875      0.080065
O	      1.95164      2.00747      2.03907        -0.175678      0.012264     -0.003864
O	      3.93921      4.28493      2.02694        -0.046828     -0.109228     -0.005258
O	      4.07462      2.19841      3.97094        -0.177886     -0.003545      0.168927
O	      5.97382      4.60695      4.13464         0.013652      0.043475     -0.036820
O	      6.02885      2.59584      6.02534        -0.138160     -0.369023      0.102209
O	      7.82768      4.62322      6.19173         0.141394      0.021323     -0.158912
O	      1.88384      4.58053      3.96435         0.104194     -0.014702      0.143506
O	      3.99991      7.24584      4.04161        -0.111536     -0.470151     -0.022726
O	      4.12148      4.44876      6.15650        -0.026141     -0.145815      0.011346
O	      5.89826      6.46676      6.04034        -0.009132      0.225004      0.045368
O	      6.07993      4.62417      8.09860        -0.457759      0.028145     -0.026706
O	      8.06808      6.91872      8.07806        -0.011087     -0.370389     -0.029759
O	      3.98424      9.19710      5.97466        -0.020899      0.027990      0.165109
O	      3.94328      7.02873      8.00048         0.155609      0.028098      0.112131
O	      5.94318      9.29659      8.14058         0.185303     -0.092013     -0.245986
