# total energy = -201.43106482 eV
 
CRYSTAL
PRIMVEC
0.014545 6.172311 6.208754 
6.301892 -0.002131 6.224747 
4.209285 4.133902 -0.009179 
PRIMCOORD
36 1
Li	      2.00322      2.04743      0.10056         0.025071      0.048866     -0.006407
Li	      4.17121      1.98068      2.24092        -0.004927      0.008924     -0.061378
Li	      0.10176      2.08794      2.13070        -0.002987      0.039155     -0.041068
Li	      2.14299      2.11761      4.06561         0.064642      0.046035      0.016610
Li	      4.13354      4.03678      4.08851        -0.089673      0.020719     -0.042004
Li	      8.38739      6.14664      6.14187        -0.000880      0.018425      0.051983
Li	      6.32809      4.07920     10.29165        -0.014040     -0.067600     -0.029265
Li	      2.15828      4.04586      6.18537         0.023436     -0.078361     -0.011730
Li	      8.30755      8.23533      8.37315         0.027576     -0.006428     -0.049660
V	      4.22878     10.03145      6.27355         0.047120     -0.231845      0.122110
V	      6.01459      4.13371      6.19430         0.081995     -0.068742      0.346020
Cr	      2.17332      6.14406      4.10411         0.229521      0.076447      0.000680
Ni	      2.16676      0.06739      2.10120        -0.038282     -0.041983      0.062188
Ni	      6.29715      2.10687      4.12459        -0.218423     -0.010022     -0.387857
Ni	      4.25346      6.19176     10.30904         0.023117     -0.053299      0.109440
Ni	      2.12921      4.06303      2.08077        -0.033717      0.058582     -0.081356
Ni	      4.18152      6.24138      6.24167        -0.064470      0.058192     -0.060950
Ni	      6.32545      6.24383      8.24680        -0.038355     -0.054049     -0.008803
O	      2.11128      2.06389      2.10120        -0.016841     -0.043558      0.002390
O	      4.26508      4.18283      1.83442         0.034426     -0.038114      0.015710
O	      4.40596      2.04363      4.16299        -0.587430      0.049194      0.187096
O	      6.38831      4.20050      4.31413        -0.080751     -0.235645     -0.161964
O	      6.31764      2.30055      6.08547         0.032010      0.133197      0.677524
O	      8.72223      4.14824      6.16443        -0.030866     -0.028126      0.042055
O	      2.09207      4.26729      4.11874        -0.022267      0.081896      0.096241
O	      3.99538      6.26825      4.21621        -0.051921     -0.059979     -0.123023
O	      4.26948      4.14106      6.18890         0.025268     -0.098298     -0.010290
O	      6.28164      6.04139      6.19083         0.035148     -0.053499     -0.109286
O	      6.37736      4.12680      7.99287        -0.117532      0.059804      0.041526
O	      8.36898      6.12025      8.39107         0.062476      0.086478      0.026851
O	      1.95608      6.16863      6.17322         0.033050      0.013989     -0.127336
O	      4.25086      8.29977      6.21029         0.017447      0.241869     -0.011961
O	      4.24802      6.13938      8.25750        -0.025952      0.000300      0.071999
O	      6.30180      8.28103      8.42985         0.160914      0.117798     -0.588924
O	      6.40865      6.15442     10.50082         0.005046      0.200048     -0.070864
O	      8.26567      8.15573     10.36601         0.511054     -0.190373      0.113704
