# total energy = -215.82355705 eV
 
CRYSTAL
PRIMVEC
0.026960 6.227537 6.304553 
6.242509 -0.002765 6.334645 
4.147516 4.157190 0.012394 
PRIMCOORD
36 1
Li	      2.18715      6.21219      8.41857         0.143422      0.034574     -0.075244
Li	      4.21298      8.16087      8.47933        -0.049799     -0.032603     -0.016570
Li	      4.14765      6.24972     10.38079        -0.009457     -0.033337     -0.101360
Li	      6.30626      8.24751     10.35743         0.086429     -0.050037     -0.085954
Li	      2.11350      4.15080      2.07863         0.017741     -0.066182     -0.071009
Li	      8.30840      6.27504     10.52121        -0.013423      0.067932      0.008213
Li	      4.16867      6.25789      6.52109        -0.068149      0.057605      0.165506
Li	      8.25220      8.40595      8.47622        -0.026258      0.046192      0.025994
Li	      6.19341      6.33257      8.46568        -0.148340      0.030387      0.033241
Ti	      6.20863      4.28155     10.46900        -0.355609      0.258180     -0.118482
Cr	      6.24513      4.18088      6.35744        -0.036743      0.073101      0.277446
Fe	      4.16043      6.18903      2.11899         0.064462      0.050824     -0.191461
Fe	      4.16097      4.11325      4.14628        -0.103072      0.217812     -0.054778
Fe	      8.28755      6.18846      6.37004         0.104412     -0.047075      0.220102
Fe	      6.24179      8.41455      6.50131        -0.037338      0.024759     -0.104144
Co	      2.12726      8.24915      6.29255         0.048704     -0.013908      0.123132
Cu	      2.10304      2.05625      4.17891        -0.028146      0.072914      0.023705
Ni	      4.16939     10.36971      6.32543        -0.024491      0.038376      0.064680
O	      4.16709      6.22005      8.45085         0.007974     -0.007640      0.052104
O	      1.96666      2.05910      1.86509         0.254074      0.017961     -0.091093
O	      4.12212      4.21844      2.16353         0.003796     -0.198043      0.116493
O	      4.09423      2.14631      4.29917         0.019189     -0.174884     -0.032955
O	      6.14987      4.23383      4.36948         0.085767     -0.090241     -0.067041
O	      6.28697      2.11659      6.32919        -0.001264      0.103581     -0.118526
O	      8.26809      4.11825      6.31745        -0.099095      0.005042     -0.007065
O	      2.05462      4.07761      4.33757         0.047737     -0.051814     -0.030649
O	      4.24827      6.23739      4.12130         0.091341     -0.048539      0.210985
O	      4.17934      4.10839      6.24616         0.087311      0.014762     -0.058008
O	      6.32829      6.18668      6.46430        -0.059816     -0.011424     -0.056747
O	      6.26053      4.07661      8.49104         0.043341      0.081143      0.114665
O	      8.46841      6.23247      8.33139        -0.123367     -0.042825     -0.028857
O	      2.04806      6.26490      6.28332         0.064571     -0.108911     -0.112295
O	      4.14394      8.31509      6.20538        -0.022504     -0.096498     -0.120662
O	      6.25299      8.32377      8.34148        -0.070258      0.038812      0.331356
O	      6.30136      6.11078     10.54367        -0.003126     -0.234634     -0.074828
O	      8.48262      8.25768     10.69460         0.109984      0.074638     -0.149895
