# total energy = -214.87880109 eV
 
CRYSTAL
PRIMVEC
0.002617 6.276510 6.137214 
6.240842 0.010567 6.128807 
4.178109 4.196511 -0.010885 
PRIMCOORD
36 1
Li	      4.23468     10.38140      6.23481         0.025549     -0.086311      0.074828
Li	      6.19409     10.37927      8.14830        -0.007920      0.023445      0.031218
Li	      4.27171      8.45932      8.11612        -0.042453      0.022561     -0.034604
Li	      6.26947      2.16652      8.18918         0.050046     -0.065391      0.033278
Li	      8.26421      4.16853      8.19318         0.043624     -0.026913      0.000748
Li	      6.28953      4.20953     10.11252         0.030541      0.036487      0.018282
Li	      6.18591      8.44234      6.24379        -0.039859      0.045066     -0.027131
Li	      4.17199      4.20516      8.19655        -0.021929      0.045345      0.030181
Li	      6.24546      6.26011      8.19882        -0.021096      0.012524      0.020599
Ti	      8.36978      6.31711      6.32150        -0.019870      0.047254      0.139113
Cr	      2.08292      2.10522      0.04427         0.052568     -0.035948      0.267940
Fe	      4.28022      6.24165     10.09957         0.008228      0.020809     -0.093135
Fe	      2.05751      2.14601      3.94278        -0.154170      0.197102     -0.054587
Fe	      4.14453      4.20122      3.92216        -0.012136     -0.103051      0.004833
Fe	      4.18151      6.37489      6.24772         0.000757     -0.092299      0.094765
Co	      8.30201      6.27649     10.17907         0.037403     -0.035471      0.108631
Cu	      6.26541      8.34088     10.10534         0.053391     -0.129430     -0.086276
Cu	      6.24132      4.22426      6.22279         0.035406      0.021922     -0.203086
O	      6.23832      4.18382      8.09648         0.013297      0.008193      0.062531
O	      6.26757      8.38646      8.23925         0.019154     -0.066784     -0.038890
O	      2.05996      2.09230      2.05422        -0.056929      0.038673     -0.155892
O	      4.19009      4.19897      2.09827         0.004465     -0.002576     -0.197002
O	      4.07050      2.06813      4.17580         0.017531      0.049059      0.168653
O	      6.27601      4.30251      4.16294        -0.057109     -0.014149      0.138762
O	      6.17037      2.10081      6.03746        -0.016210     -0.004852      0.061332
O	      8.35878      4.23709      6.02715        -0.016206     -0.000189      0.001991
O	      2.12636      4.24976      4.10362        -0.087802      0.106722      0.016320
O	      4.12451      6.22434      4.17809        -0.021539      0.112460     -0.027220
O	      4.16394      4.06837      6.07866        -0.006423     -0.047607      0.094516
O	      6.31060      6.31653      6.06034        -0.020348      0.027873      0.028726
O	      8.34225      6.27214      8.15344        -0.005011      0.022886     -0.248456
O	      2.13509      6.37318      5.97873        -0.054008     -0.086580     -0.094877
O	      4.06640      8.29558      6.14444        -0.019044      0.092646     -0.006095
O	      4.15788      6.25433      8.18553         0.020428     -0.039393      0.023972
O	      6.29806      6.28267     10.21351         0.177097     -0.010166     -0.027733
O	      8.33629      8.36303     10.29471         0.090579     -0.083913     -0.126236
