# total energy = -103.20233572 eV
 
CRYSTAL
PRIMVEC
0.000042 2.092098 2.091535 
8.324327 -4.233755 4.232878 
2.070951 4.211233 -2.118579 
PRIMCOORD
16 1
Li	      0.17310      2.08159      2.10159        -0.005079     -0.001792      0.005823
Li	      2.15716      1.93948      0.15240         0.008822      0.005660     -0.004780
Li	      4.00875      2.12306      2.06183         0.007403      0.004892     -0.005132
Li	      6.20372     -0.03359      2.12889        -0.018748      0.013947     -0.017492
Ti	      6.15317      2.09696     -0.00975        -0.296754      0.043128     -0.035388
Ti	      8.46984     -0.01082      4.19428         0.558951     -0.063613      0.066771
Ni	      2.00613      0.05036      2.04163        -0.059364     -0.055577      0.055387
Ni	      6.23556     -2.10707      4.19983         0.006789     -0.093698      0.092667
O	      6.25742      2.17834      2.00723        -0.092634      0.052788     -0.055219
O	      6.22380     -0.06098      4.24559         0.007795      0.121649     -0.128193
O	      8.28660     -0.06890      2.16167        -0.009311     -0.089080      0.089501
O	      8.27282     -1.98454      4.07738         0.099612      0.103296     -0.103573
O	      1.94913      4.22523     -0.04040        -0.578125      0.015668     -0.018648
O	      2.07548      2.04342      2.14029         0.012942      0.131420     -0.131834
O	      4.28146      2.11983     -0.02618         0.285215     -0.083812      0.078667
O	      4.20335     -0.13663      2.22841         0.072486     -0.104876      0.111442
