# total energy = -217.21338816 eV
 
CRYSTAL
PRIMVEC
0.013791 6.275369 6.229156 
6.211552 0.030934 6.211696 
4.162663 4.193628 -0.001022 
PRIMCOORD
36 1
Li	      4.12012      4.18896      0.19699        -0.029775     -0.015610     -0.029717
Li	      6.14412      4.20665      2.00715         0.035324      0.037944     -0.004010
Li	      4.16360      2.22814      2.03954        -0.025740     -0.051811     -0.023189
Li	      8.29064      4.20641      4.18154        -0.001125     -0.001971      0.014022
Li	      4.08556      6.11644      2.05070         0.008578      0.063819     -0.020098
Li	      2.23327      4.20676      2.03246        -0.094938     -0.049234      0.017723
Li	      8.37244      6.18835      6.22391        -0.016098     -0.094060      0.007312
Li	      2.11167      6.25058      4.19325        -0.007874      0.009807     -0.009135
Li	      2.08505      4.35896      6.20015        -0.019675      0.048334     -0.006559
Ti	      6.29495      6.36334      8.27756         0.185262      0.102443     -0.066363
Cr	      6.23589      4.18486      6.25330         0.112341     -0.035540      0.044589
Fe	      2.10236      2.06100      0.10964        -0.033072      0.040053      0.020641
Fe	      6.16691      2.12226      4.15408         0.064392     -0.079049      0.068595
Fe	      2.15142      2.11716      3.99233        -0.021743     -0.113903      0.062126
Fe	      4.18618      8.36736      4.15702        -0.047210      0.064511     -0.001336
Co	      4.16822      6.32434      6.22172        -0.038927      0.054665     -0.025163
Ni	      4.11038      4.21893      4.09367        -0.038167      0.078072      0.119927
Ni	      4.12027      4.22425      8.27072         0.005652      0.000112      0.068881
O	      4.15720      4.20256      2.15359         0.023876     -0.035162     -0.003799
O	      2.08023      2.06498      2.07953        -0.011904      0.007628      0.082942
O	      4.14858      2.13860      4.19911         0.027964     -0.018794     -0.018610
O	      6.20567      4.20005      4.24032         0.005769     -0.011005     -0.042243
O	      6.24744      2.15482      6.14499        -0.068536      0.015243      0.065531
O	      8.21175      4.06013      6.23746        -0.035373      0.261895     -0.030764
O	      2.01738      4.10396      4.17085         0.095769      0.080515     -0.038897
O	      4.24400      6.33512      4.24417        -0.028457     -0.070640      0.059267
O	      4.20620      4.37819      6.19844        -0.004565      0.021037     -0.117233
O	      6.15162      6.21399      6.23613        -0.021531      0.029041      0.047791
O	      6.18241      4.29764      8.30629         0.088937      0.065705     -0.029642
O	      8.17575      6.35578      8.20392        -0.234070     -0.074198      0.053998
O	      2.23852      6.39215      6.22426         0.054282     -0.264382      0.000928
O	      4.14222      8.30199      6.15276         0.101976     -0.074834      0.046618
O	      4.26493      6.26071      8.13936         0.064091      0.069418     -0.028282
O	      6.23605      8.30635      8.37560        -0.106146     -0.120925     -0.070073
O	      6.20110      6.28158     10.24513         0.002687      0.027317     -0.144282
O	      8.29797      8.38694     10.38520         0.008026      0.033559     -0.071497
