# total energy = -219.24290734 eV
 
CRYSTAL
PRIMVEC
0.022963 6.102954 6.308671 
6.282783 -0.000538 6.332352 
4.200513 4.096266 -0.012483 
PRIMCOORD
36 1
Li	      6.28832      0.13078      6.32332        -0.053359     -0.013426      0.025297
Li	      8.29046      1.98695      6.32105        -0.007005      0.015036      0.043920
Li	      2.09117      6.11406      8.35025         0.041451      0.070408      0.032466
Li	     10.46707      6.09262      8.37405         0.029753     -0.009916     -0.017630
Li	      8.40061      4.18484      8.37486         0.017294     -0.019228     -0.135594
Li	      6.24196      6.16966      4.21033         0.001809     -0.015034     -0.067128
Li	      8.47077      6.04311      6.40807         0.045491     -0.091810     -0.014313
Li	      8.37706      6.12214     10.53942         0.098475     -0.014131      0.023145
Li	      6.37344      6.09558      8.42111        -0.024564     -0.014626     -0.031321
Ti	      4.04403      2.04268      2.06654        -0.876627     -0.230508      0.016144
Cr	      6.32168      4.06800      6.32897         0.281905     -0.034591      0.088213
Fe	      4.16892      4.22821      4.10326        -0.106608     -0.041978      0.067963
Fe	      6.36165      4.10122     10.42374         0.084611     -0.276765      0.002416
Fe	      6.33053      8.17116      6.33229        -0.002646     -0.111908      0.004200
Fe	      8.37394      8.00055      8.45302         0.071658      0.349169      0.033037
Co	      8.38781      4.12049      4.27719         0.239235     -0.186762     -0.383852
Co	      6.32939      8.11638     10.53344        -0.029499      0.038437      0.134051
Cu	      4.19489      6.11951      6.30989        -0.028952      0.088642      0.046845
O	      2.23631      2.04139      2.10032         0.757879      0.030830     -0.001437
O	      4.19897      3.99343      2.18259         0.053777     -0.163173     -0.040386
O	      4.36592      2.07288      4.11610        -0.093787     -0.525779      0.041418
O	      6.21339      3.96217      4.30608         0.686083      0.059134      0.006838
O	      6.29804      2.08902      6.14827        -0.032719      0.024509     -0.180842
O	      8.28337      4.11041      6.14628        -0.082427      0.013494      0.176647
O	      2.11350      4.06571      4.29853        -0.016973      0.039891      0.041321
O	      4.22997      6.16920      4.09700        -0.004943      0.130229     -0.011812
O	      4.21512      4.08162      6.33165        -0.048934     -0.090372     -0.063379
O	      6.19591      6.11750      6.31591         0.047524      0.047998     -0.035153
O	      6.23929      4.07728      8.42550        -0.019110      0.013712     -0.035498
O	      8.40360      6.15960      8.39613        -0.017564     -0.126342      0.051939
O	      2.23736      6.01062      6.35498        -0.109449      0.070867     -0.062770
O	      4.29505      8.14604      6.38889         0.033147      0.123724     -0.040124
O	      4.21277      6.15783      8.68360         0.004296      0.087832      0.125002
O	      6.33319      8.14592      8.47353        -0.065027      0.012791      0.009910
O	      6.28604      6.10122     10.58209        -0.945260      0.116279      0.047668
O	      8.36728      8.20631     10.48516         0.071062      0.633366      0.102799
