# total energy = -219.37030740 eV
 
CRYSTAL
PRIMVEC
-0.011649 6.259775 6.239507 
6.287937 -0.033435 6.261213 
4.173900 4.169578 -0.004169 
PRIMCOORD
36 1
Li	      6.28834      6.19101     12.39208         0.047699      0.021351     -0.001511
Li	      8.41454      8.27016     12.39037        -0.041554      0.025831     -0.033920
Li	      4.25391      8.26231      8.25478         0.053162     -0.034287      0.014603
Li	      6.34320      8.23290     10.39047         0.001397      0.031043      0.023046
Li	      6.28699      4.17058      6.25729         0.058773     -0.076462      0.030474
Li	     10.38500      8.37279     10.48130        -0.052475      0.024405     -0.069301
Li	      8.26850      6.32770     10.47822        -0.041049      0.059550      0.007920
Li	      8.30348      8.35005      8.39556        -0.019783     -0.004933      0.097894
Li	      6.23200      6.31488      8.39152        -0.020510      0.041788      0.037245
Ti	      6.21678      2.14670      8.20569         0.044181      0.251223     -0.487534
Cr	      4.20201      4.14538      4.18498         0.090344     -0.032943     -0.063679
Fe	      2.15426      6.13544      8.25640        -0.205735      0.139182      0.065401
Fe	      4.31887      6.12671     10.43418        -0.300084      0.197557     -0.160949
Fe	      8.34893      4.14771      8.26747         0.007040     -0.120741      0.017227
Fe	      6.27427      6.24913      4.21461        -0.044295     -0.098588     -0.090207
Co	      8.34128      6.24862      6.29069        -0.063797      0.047830     -0.085714
Co	      4.17767      6.26416      6.26673        -0.047107      0.636508      0.404784
Ni	      6.21377      8.34850      6.25265         0.063472     -0.013009     -0.089743
O	      1.95560      2.09486      2.15164         0.056053     -0.056296     -0.086501
O	      4.17829      4.26339      2.15192        -0.012631     -0.024255      0.060258
O	      4.09897      2.08566      4.19427         0.118703     -0.023218      0.012163
O	      6.26482      4.22329      4.08868        -0.046242     -0.047818      0.039033
O	      6.25015      2.07276      6.36593        -0.049156      0.062876      0.601498
O	      8.36404      4.19569      6.29252        -0.014342     -0.020177      0.011812
O	      2.19559      4.09093      4.10670         0.000390      0.066447     -0.034624
O	      4.23437      6.15543      4.25970         0.071353     -0.190611     -1.281667
O	      4.11937      4.23068      6.17309         0.208575     -0.587893     -0.012966
O	      6.16833      6.25553      6.20708         1.068550     -0.072957     -0.009325
O	      6.37180      4.01958      8.36681        -0.111010     -0.223876      0.027127
O	      8.46792      6.15503      8.39200         0.023747      0.108424      0.002093
O	      2.22106      6.24416      6.28453        -1.035865     -0.085597      0.002346
O	      4.24145      8.14225      6.24043        -0.204175      0.447901     -0.146782
O	      4.11776      6.25011      8.26393         0.083273     -0.134720      1.036905
O	      6.24152      8.40693      8.25844         0.043873     -0.091425      0.204538
O	      6.16456      6.24874     10.41782         0.230793     -0.025434     -0.047830
O	      8.33978      8.45059     10.41752         0.038431     -0.196673      0.005886
