# total energy = -221.03692451 eV
 
CRYSTAL
PRIMVEC
0.008452 6.161056 6.202642 
6.356033 0.015488 6.196096 
4.248955 4.114910 -0.001620 
PRIMCOORD
36 1
Li	      4.21520      2.07679      2.16350        -0.120700      0.139158      0.031385
Li	      6.27575      2.05482      4.15457        -0.047300      0.005292      0.020790
Li	      4.23663      6.17964      2.20125         0.051236     -0.027304      0.104787
Li	      2.18693      2.13129      4.17175         0.003536      0.190196     -0.047442
Li	      4.15196      4.02831      4.17740        -0.225092     -0.024099     -0.135043
Li	      4.16769      2.14944      6.09804        -0.088130     -0.009844     -0.000717
Li	      4.24862      8.15664      4.12059         0.186828     -0.024919     -0.058094
Li	      2.23891      6.17106      4.08889         0.079272     -0.190642      0.006756
Li	      2.19411      4.06205      6.09210         0.032255      0.009431     -0.219411
Ti	      6.28201      4.13274      2.16119        -0.609765      0.422325      0.106887
Cr	      4.23716      0.06982      4.12879         0.086338      0.097907      0.091748
Fe	      6.40462      6.16077     12.32105        -0.020205     -0.025689      0.127671
Fe	      6.28590      4.05884      6.20351         0.219936      0.009742     -0.031464
Fe	      4.27101      6.20824      6.02101        -0.059215      0.210759     -0.129930
Fe	      6.44727      6.24216      8.29036        -0.161266     -0.178091      0.057664
Co	      8.49745      8.17321      8.34890         0.182908      0.116410     -0.335332
Co	      8.49595      8.22101     12.36499         0.075053     -0.061572      0.312796
Co	      2.15057      4.09930      2.23102         0.121660     -0.231423     -1.000920
O	      2.13431      1.98822      1.93181         0.042368     -0.287619     -0.072455
O	      4.36323      4.10912      1.97612         0.705732     -0.066514     -0.059817
O	      4.23575      1.99902      4.16686         0.093194     -0.181982      0.008163
O	      6.43049      4.15238      4.07708         0.046314     -0.055564     -0.131641
O	      6.52953      2.06303      6.18271         0.027992      0.008548     -0.013593
O	      8.50735      4.01160      6.20903        -0.107210     -0.017975     -0.059442
O	      2.14112      4.09361      4.00668        -0.092834      0.195324      0.910511
O	      4.24506      6.15331      4.18814        -0.000004     -0.041757      0.021323
O	      4.33660      4.16637      6.24655        -0.238853     -0.200362      0.781737
O	      6.28335      6.12934      6.28027         0.060319      0.008493      0.071282
O	      6.37848      4.17659      8.20289        -0.858047     -0.008407      0.103329
O	      8.39441      6.10047      8.23723         0.173710      0.673131      0.171211
O	      2.11639      6.24376      6.26698         0.062329      0.073804      0.060752
O	      4.10788      8.25571      6.19286        -0.086679     -0.079104      0.039652
O	      4.19171      6.18408      8.29806         0.065320     -0.428710     -0.027662
O	      6.42258      8.30783      8.22147         0.582504     -0.147657      0.073446
O	      6.26605      6.19129     10.32228        -0.117542      0.073574     -0.086559
O	      8.48092      8.31030     10.40427        -0.065962      0.055138     -0.692369
