# total energy = -213.88577910 eV
 
CRYSTAL
PRIMVEC
0.032493 6.249346 6.319063 
6.228064 0.022702 6.329109 
4.163421 4.184502 0.003610 
PRIMCOORD
36 1
Li	      6.16311      0.07334      6.26317        -0.040862      0.022391      0.036532
Li	      4.25774      6.29351     10.57183         0.052536      0.002109      0.044390
Li	     10.31056      6.36395      8.45810        -0.043218      0.028231      0.092960
Li	      8.27650      4.28050      8.41789        -0.001356      0.068813     -0.004733
Li	      6.22315      6.29676      4.24665        -0.134974      0.048279     -0.022550
Li	      8.35417      6.20674      6.37609         0.013386     -0.047837      0.122159
Li	      6.26991      4.19651     10.44236         0.067782     -0.141305     -0.098875
Li	      4.19061      6.25984      6.25266        -0.006018     -0.034831     -0.092476
Li	      6.33847      6.19979      8.49468         0.045264     -0.027565     -0.023503
Ti	      2.12122      6.30042      8.35559        -0.013581      0.231136     -0.291251
Cr	      6.26079      4.22874      6.37718        -0.010250      0.179504      0.089104
Fe	      8.30332      2.19820      6.26078         0.275915      0.018752      0.112671
Fe	      4.21586      8.30403      8.45558        -0.040383     -0.015093     -0.214513
Fe	      4.14256      4.21492      4.23675        -0.321658      0.292371      0.010924
Fe	      6.20528      8.16119      6.25785         0.049665      0.055630     -0.143312
Cu	      6.22551      2.04845      4.27450         0.093289      0.005092      0.122379
Cu	      8.39382      8.32893      8.46592         0.047028     -0.022794     -0.071944
Ni	      8.31297      6.26828     10.50145         0.264328     -0.223263      0.115981
O	      8.32704      6.37907      8.53947        -0.018459     -0.005261     -0.361789
O	      6.41691      6.35696     10.54523        -0.712009      0.408357      0.072852
O	      2.16466      1.98309      2.07200        -0.037004     -0.263931      0.074305
O	      4.27849      4.10423      2.20289         0.177110     -0.041967     -0.080824
O	      4.22720      2.13705      4.10828         0.181602     -0.122681      0.163410
O	      6.16694      4.13874      4.19926         0.153006     -0.239398      0.008894
O	      6.35174      2.22462      6.42579        -0.178671     -0.089864     -0.203667
O	      8.26080      4.14876      6.33548        -0.049674      0.083248      0.012316
O	      2.11191      4.19334      4.29197        -0.027970     -0.291062      0.004849
O	      4.00573      6.16339      4.21122         0.594278      0.028912      0.014981
O	      4.16412      4.15669      6.28078        -0.019508     -0.030474     -0.032143
O	      6.23723      6.26124      6.27853         0.008979     -0.164061     -0.013968
O	      6.16964      4.23716      8.32912         0.134038     -0.002620      0.001860
O	      2.08681      6.29819      6.42612        -0.005006     -0.046076      0.367389
O	      4.18832      8.34138      6.43170        -0.007599      0.013457      0.010774
O	      4.06237      6.25387      8.49783        -0.154133      0.036665      0.005264
O	      6.28174      8.44138      8.25900        -0.080259     -0.011653      0.144584
O	      8.33030      8.33502     10.57751        -0.255613      0.298790      0.026973
