# total energy = -214.93621194 eV
 
CRYSTAL
PRIMVEC
0.062331 6.273624 6.184020 
6.391710 0.065167 6.181425 
4.295891 4.215299 0.008933 
PRIMCOORD
36 1
Li	      2.23382      8.30908      6.20847         0.027799     -0.032040      0.051091
Li	      6.50391     10.42132      8.18863         0.015962     -0.079832      0.016395
Li	      4.40273      8.41921      8.20051         0.047913      0.002043      0.042406
Li	      6.44258      2.19080      4.12300         0.018395      0.024626     -0.077405
Li	     10.65797      6.32674      8.23705        -0.009556      0.010583      0.054296
Li	      4.30512      4.20805      4.10438        -0.021572     -0.020923     -0.042105
Li	      2.22979      6.35644      4.16514         0.029230      0.031834     -0.003569
Li	      4.17395      6.31166      6.27297        -0.042947     -0.010555      0.021455
Li	      8.52686      8.45556      8.23457        -0.099864      0.024507      0.029674
Ti	      2.09308      2.06205      4.00931        -0.084822      0.030955     -0.267566
Cr	      2.21816      4.21754      2.04763         0.041269      0.047633      0.168258
Fe	      0.11098      0.05027      0.07447         0.189611      0.023601     -0.142332
Fe	      8.60395     10.49013     10.26034        -0.015198      0.033519     -0.051670
Fe	     10.64410      8.41044     10.32971         0.104732      0.000535     -0.098028
Fe	      6.42396      6.42690      8.24057        -0.069416      0.353128      0.152210
Cu	      4.29922      2.17109      6.19020         0.173550      0.058526     -0.045446
Cu	      6.35423      4.17726      6.22435        -0.196193      0.122378     -0.093886
Cu	      2.19926      4.25523      6.20490         0.075928      0.131075     -0.085438
O	      2.13145      6.24910      6.18026        -0.049282      0.292560     -0.047090
O	      6.47438      8.37977      8.18556         0.062606     -0.315234      0.490857
O	      2.17819      2.16377      2.15761        -0.043473      0.008897      0.163136
O	      4.20444      4.22871      2.02159        -0.057677      0.049617      0.079895
O	      4.12362      2.05242      4.20161        -0.056389     -0.032047     -0.082259
O	      6.48037      4.32111      4.23643        -0.015758      0.056573     -0.166831
O	      6.31776      2.16626      6.16357         0.053291     -0.174132      0.048607
O	      8.70795      4.32956      6.19982        -0.117932     -0.059220      0.071167
O	      2.10488      4.10196      4.08851        -0.068253     -0.201735     -0.396247
O	      4.46859      6.37235      4.16441         0.097247     -0.095233     -0.042323
O	      4.17368      4.13012      6.17033        -0.006660      0.188128      0.053757
O	      6.52101      6.33982      6.18315        -0.097222     -0.261750     -0.027179
O	      6.55301      4.30302      8.20478         0.017687      0.026907      0.136003
O	      8.49927      6.27509      8.21711         0.007578     -0.152883     -0.009328
O	      4.44941      8.49705      6.11702         0.106467     -0.007498      0.100892
O	      4.42378      6.33163      8.31103        -0.030800     -0.083293     -0.125350
O	      6.38670      6.28898     10.28453         0.041564      0.003658      0.113971
O	      8.69518      8.49923     10.34232        -0.027816      0.005095      0.009983
