# total energy = -213.90065598 eV
 
CRYSTAL
PRIMVEC
0.016665 6.259495 6.253394 
6.213015 0.014309 6.255905 
4.138903 4.171647 0.012638 
PRIMCOORD
36 1
Li	      6.17574      4.18648      2.26808        -0.008404     -0.008187     -0.004018
Li	      8.15575      4.21577      4.16237        -0.039942     -0.018103      0.019366
Li	      6.19616      2.17780      4.16989         0.000382      0.002877      0.003541
Li	      4.15618      6.22087      2.13685        -0.014041     -0.029750     -0.029006
Li	      2.07931      4.13550      2.10035         0.003799      0.003205     -0.004806
Li	      4.23403      4.18956      4.05571        -0.063843      0.015568     -0.046891
Li	      6.24167      4.18224     10.33732         0.017672      0.023662     -0.023513
Li	      4.12908      6.23543      6.23898        -0.013214     -0.005708      0.006377
Li	      6.21636      6.23938      8.46486         0.010681      0.027729      0.080527
Ti	      6.24244      8.23360      6.24418         0.053597     -0.221231     -0.011069
Cr	      4.24000      4.29293      8.39041        -0.034143     -0.070855      0.105322
Fe	      6.19521      0.04849      6.26298         0.015730      0.011544     -0.097612
Fe	      8.26559      2.11606      6.27607         0.047653     -0.006491     -0.095047
Fe	      4.14024      2.10680      2.22309         0.079468     -0.101991     -0.062944
Fe	      2.15112      6.25534      4.10701        -0.126979     -0.006918     -0.047178
Ni	      6.19397      4.20776      6.21277         0.041442     -0.026112      0.097017
Ni	      6.14217      6.21190      4.10730        -0.108962      0.107542     -0.031410
Ni	      4.17850      2.08308      6.21712         0.042592     -0.072865      0.052437
O	      2.14224      2.06331      1.99808        -0.039841      0.003938      0.014452
O	      4.14109      4.07813      1.98658         0.015329      0.039234      0.075777
O	      4.09366      2.08678      4.14418         0.016391      0.013202      0.020197
O	      6.15602      4.25367      4.25188        -0.010659     -0.112411     -0.138027
O	      6.26225      2.06536      6.27064         0.064472      0.030634     -0.003491
O	      8.32882      4.14110      6.23986        -0.020615     -0.045866      0.004092
O	      2.07336      4.19054      4.29794         0.020863     -0.063637      0.106739
O	      4.02452      6.23643      4.14400         0.364875      0.000764      0.030731
O	      4.07338      4.16868      6.38736        -0.187348      0.103986      0.038428
O	      6.24030      6.34143      6.21431        -0.123212      0.316332      0.076748
O	      6.06502      4.21212      8.27011        -0.065679      0.028976      0.109837
O	      8.25519      6.45894      8.39530         0.030273      0.084181     -0.101435
O	      2.07503      6.25121      6.15507         0.058736     -0.063680      0.117227
O	      4.21130      8.35428      6.35023         0.080218     -0.036676     -0.040047
O	      4.13452      6.15438      8.38035         0.028561     -0.010976     -0.039066
O	      6.24398      8.35525      8.23081         0.075225      0.007203     -0.081844
O	      6.45246      6.25759     10.51071        -0.221321     -0.006190     -0.011207
O	      8.34730      8.31730     10.43827         0.010244      0.087072     -0.090202
