# total energy = -221.32850564 eV
 
CRYSTAL
PRIMVEC
0.018694 6.325612 6.279405 
6.151786 0.018551 6.278947 
4.118872 4.234365 -0.005419 
PRIMCOORD
36 1
Li	      2.08157      2.10903      0.11195         0.022156      0.010760      0.092560
Li	      2.02972      0.09500      2.03125         0.027960      0.043953     -0.003927
Li	      4.08415      2.12843      2.06417         0.002894     -0.021774      0.024861
Li	      4.14075      6.32654     10.39691         0.032053     -0.007734     -0.033422
Li	      4.18381      6.24568      2.05214         0.031383     -0.010637      0.027309
Li	      2.10016      4.18670      2.09052        -0.042062     -0.022467      0.003301
Li	      8.20543      6.39183      6.33925        -0.013671      0.034820      0.004302
Li	      6.18242      8.47030      6.34431         0.033460      0.006013      0.011431
Li	      8.19480      8.45394      8.33875        -0.000457      0.003432     -0.012227
Ti	      6.27718      4.17875      6.40382         0.065093      0.021024      0.147538
Cr	      4.08673      4.21018      0.08163        -0.051880      0.008724      0.181794
Fe	      6.21346      8.48726     10.39416        -0.067928      0.075033     -0.000123
Fe	      2.11080      2.11947      4.03701        -0.042289     -0.049797      0.099735
Fe	      4.08635      4.19112      4.07792         0.044177      0.037528      0.071874
Fe	      8.21012      6.39422     10.42319         0.064509     -0.121292     -0.040153
Fe	      4.08420      6.36328      6.35170         0.028771     -0.004624     -0.067858
Co	      6.16955      6.39216      8.34758        -0.021515     -0.019102     -0.083842
Cu	      6.12865      4.26011     10.43875        -0.006724      0.002539     -0.118849
O	      2.04765      2.08125      2.19782         0.002426      0.028358     -0.113732
O	      4.12412      4.22946      2.08920         0.006925     -0.011005     -0.200958
O	      4.12258      2.22398      4.20299         0.032487     -0.102966      0.018982
O	      6.16526      4.19744      4.25695         0.043085      0.016345      0.022818
O	      6.14852      2.21144      6.27418         0.026431     -0.032340      0.023250
O	      8.17205      4.25002      6.30605        -0.047868     -0.025382      0.005882
O	      2.05800      4.20428      4.19142        -0.043949      0.046466      0.025367
O	      4.08967      6.21343      4.22108        -0.003249     -0.072624      0.000805
O	      4.23149      4.31141      6.21746         0.051385     -0.054693     -0.069779
O	      6.12954      6.20808      6.14569         0.008822     -0.017850      0.070191
O	      6.15241      4.36077      8.32872        -0.004358      0.115874     -0.212788
O	      8.04328      6.33850      8.46592        -0.009825      0.008386     -0.021667
O	      2.06157      6.31622      6.23514        -0.152606      0.006337      0.001119
O	      4.12013      8.48653      6.16044         0.006331      0.074086      0.073123
O	      4.26616      6.36442      8.28091         0.033652      0.011549      0.033802
O	      6.17766      8.29377      8.43844        -0.005778     -0.101577     -0.050684
O	      6.18905      6.49759     10.62261        -0.044692      0.031488      0.033958
O	      8.22830      8.39395     10.43167        -0.005147      0.093147      0.056006
