# total energy = -221.99094498 eV
 
CRYSTAL
PRIMVEC
0.015811 6.319259 6.216426 
6.291407 0.015294 6.217024 
4.198829 4.217749 0.005624 
PRIMCOORD
36 1
Li	      6.26983      4.19509      2.19016         0.087199     -0.156079      0.069308
Li	      4.22601      2.17180      2.17859         0.054554      0.003048      0.061125
Li	      6.27903      8.42765     10.25408        -0.016512     -0.024274     -0.251435
Li	      2.16244      4.13454      2.19194         0.005605     -0.056389      0.046145
Li	      2.16572      2.24535      4.04896         0.041902      0.008103     -0.009615
Li	      4.11969      4.14843      4.03808        -0.023060     -0.025231     -0.016806
Li	      6.35451      4.24553     10.30292        -0.046054      0.023515     -0.068703
Li	      2.07046      4.23391      6.18514         0.028446      0.002092      0.178412
Li	      6.25878      6.37099      8.35054        -0.053631      0.147963      0.012952
Ti	      6.29132      4.29640      6.14811        -0.173603      0.298904     -0.231199
Cr	      4.21097      4.19163      0.04689         0.083280     -0.137430     -0.050795
Fe	      2.14351      8.43861      6.22625         0.005648     -0.071136      0.085252
Fe	      4.27685      6.27793      2.20872        -0.026258      0.124479      0.108608
Fe	      4.17379      2.15762      6.12756        -0.150927      0.037514      0.022905
Fe	      2.03723      6.16542      4.07779        -0.119727      0.084827      0.035420
Fe	      4.20389      6.43657      6.23869         0.063170     -0.096736     -0.054018
Co	      8.25379      8.46289      8.34597         1.602446      0.039810     -0.365313
Co	      4.24714      6.34981     10.29497         0.028308     -0.020453     -0.072369
O	      2.01722      2.12238      1.99104         0.118219      0.025765     -0.030208
O	      4.22413      4.30074      2.01640        -0.067356     -0.070032     -0.006424
O	      4.20104      2.02650      4.24098         0.025676      0.093539     -0.063215
O	      6.39861      4.17208      4.29967        -0.127580      0.030204      0.335634
O	      6.28295      2.08547      6.27231         0.040155      0.009535     -0.035248
O	      8.39790      4.24117      6.28423        -0.007189     -0.079340      0.212874
O	      2.09165      4.29400      4.16590         0.002866     -0.074882     -0.052193
O	      4.13091      6.33637      4.21837        -0.081862      0.003108     -0.008251
O	      4.33111      4.19722      6.19597        -0.071168     -0.009961      0.405141
O	      6.31510      6.21160      6.22883         0.015804     -0.273570     -0.086609
O	      6.19510      4.10492      8.15389        -0.401946      0.048365      0.063307
O	      8.45210      6.37644      8.27015        -0.233041      0.665967      0.043378
O	      2.08827      6.40047      6.15468        -0.083900      0.148828     -0.178835
O	      4.14562      8.45147      6.27497        -0.065541      0.121174     -0.013472
O	      4.23053      6.27479      8.14600        -0.312424     -0.809698      0.105090
O	      6.46142      8.42385      8.24081        -0.135121      0.067768      0.079298
O	      6.30182      6.32870     10.45457         0.211258      0.011464      0.169892
O	      8.41617      8.50362     10.40230        -0.217636     -0.090760     -0.440033
