# total energy = -100.50708867 eV
 
CRYSTAL
PRIMVEC
-0.000032 2.084819 2.084844 
16.867577 -0.000080 -0.000313 
0.000030 2.084855 -2.084880 
PRIMCOORD
16 1
Li	      0.35275      4.16836     -0.00050        -0.007236      0.000524      0.000958
Li	      2.35549      2.08360     -0.00053        -0.046853      0.000606     -0.000012
Li	      6.25887      2.08369     -0.00041         0.000433     -0.001070      0.000000
Li	     10.48628      2.08368     -0.00008         0.004737      0.000866     -0.000335
Ti	      8.40876      4.16850     -0.00004        -0.308818      0.001127     -0.000382
Ti	     14.77767      2.08418     -0.00024         0.852914     -0.000902      0.000307
Ni	      4.23273      4.16853     -0.00057         0.094964      0.000745      0.000587
Ni	     12.33836      4.16859     -0.00015         0.042242     -0.000243      0.000063
O	     12.64431      2.08377     -0.00012        -0.021592     -0.000746      0.000136
O	     14.56454      4.16893     -0.00018         0.006595     -0.000286     -0.000632
O	      8.46137      2.08388     -0.00006         0.004851     -0.001160     -0.000575
O	     10.35809      4.16855     -0.00013        -0.226593      0.000763     -0.000044
O	      4.35475      2.08375     -0.00053         0.004231     -0.001887     -0.000052
O	      6.58254      4.16867     -0.00030         0.417557      0.000057      0.000214
O	     16.54456      2.08370     -0.00021        -0.742573      0.001410     -0.000319
O	      2.21635      4.16842     -0.00055        -0.074859      0.000195      0.000086
