# total energy = -217.60929502 eV
 
CRYSTAL
PRIMVEC
0.015061 6.216875 6.303767 
6.270386 -0.013685 6.332504 
4.184506 4.168135 -0.013237 
PRIMCOORD
36 1
Li	      2.15440      2.01771      0.17078         0.010530     -0.058101     -0.007641
Li	      2.14251      0.12158      2.05121        -0.012493     -0.041823     -0.008718
Li	      4.00789      2.02762      2.08552         0.061256     -0.013643      0.005688
Li	      4.15879      6.21799     10.46616        -0.022840      0.004572     -0.008644
Li	      0.12804      2.04269      2.13008         0.017768     -0.026796     -0.013530
Li	      2.13764      4.07049      2.07893         0.009587     -0.039809     -0.015960
Li	      2.08585      2.05595      4.04109         0.011382     -0.025025     -0.012278
Li	      2.12761      6.21930      4.22762         0.002099     -0.011136      0.043071
Li	      4.09903      6.28952      6.34700        -0.048435      0.011885      0.011854
Ti	      6.29534      8.20359     10.48686         0.025759     -0.075630     -0.004306
Cr	      4.19646      2.06547      6.33140         0.019685     -0.025985      0.053826
Fe	      4.16258      4.24465      4.01843        -0.059759      0.063431      0.069641
Fe	      6.38247      4.18347      6.30314        -0.063648     -0.027345      0.070820
Fe	      4.20791      8.15947      4.20529        -0.073942      0.140551     -0.014879
Fe	      2.04930      4.24741      6.28645         0.006524     -0.194818      0.137882
Fe	      4.20995      4.20484      8.44251        -0.058551     -0.144168     -0.028041
Ni	      4.18136      4.14330      0.10416        -0.079205      0.051031      0.019220
Ni	      6.27027      6.21172      8.42475         0.012335      0.040678      0.053006
O	      2.10750      2.06684      2.09732        -0.047445      0.013989      0.026585
O	      4.15316      4.16314      2.15256         0.014866     -0.028166     -0.015985
O	      4.32018      2.14133      4.27587         0.078580     -0.022451      0.020965
O	      6.21157      4.04096      4.32152         0.032633     -0.032216     -0.108601
O	      6.23457      2.10381      6.21500        -0.003769      0.090923     -0.072854
O	      8.31953      4.24640      6.32796         0.034001      0.023244     -0.007831
O	      2.08518      4.13869      4.28332         0.020379     -0.011808     -0.080261
O	      4.16813      6.23797      4.21212         0.026219     -0.144715     -0.013462
O	      4.18692      4.10116      6.31655         0.041734     -0.003939     -0.108556
O	      6.37516      6.20665      6.34149         0.005336      0.125894     -0.083259
O	      6.21777      4.15147      8.44999         0.162812     -0.050686     -0.044219
O	      8.32790      6.38005      8.29642         0.058374     -0.135230     -0.034232
O	      2.04415      6.12559      6.35621         0.130218      0.169027     -0.025892
O	      4.25430      8.31950      6.18890        -0.118945     -0.144323      0.056003
O	      4.23689      6.09197      8.41061        -0.046654      0.326648      0.012683
O	      6.33834      8.28222      8.49039        -0.088165      0.063639      0.052300
O	      6.26731      6.27545     10.55511         0.011238      0.138708     -0.016026
O	      8.32569      8.28771     10.45369        -0.069462     -0.006404      0.091632
