# total energy = -223.55196261 eV
 
CRYSTAL
PRIMVEC
0.016644 6.222664 6.167875 
6.401163 0.009986 6.174594 
4.277816 4.163486 -0.003857 
PRIMCOORD
36 1
Li	      2.16548      2.08190      0.19765         0.037396      0.012681      0.072844
Li	      2.06191      0.06728      1.99535        -0.141276      0.063027     -0.088883
Li	      4.20152      2.13253      1.98296        -0.071457      0.113544     -0.056717
Li	      6.54593      2.19045      8.16767         0.087050     -0.044323     -0.075011
Li	      2.06910      4.04064      2.02875         0.077562     -0.026512     -0.107448
Li	      6.40249      4.12768      6.29784         0.020254     -0.032185     -0.050759
Li	      0.06101      4.11489      4.06051         0.055265     -0.018473      0.055182
Li	      6.38993      8.33822      6.24653        -0.096943      0.072497      0.101971
Li	      4.34080      4.15208      8.17286         0.040488      0.028647     -0.053503
Ti	      8.50696     10.25159     10.29105        -0.140358      0.144858      0.363327
Cr	      2.11601      2.12215      4.05099         0.041715     -0.162155     -0.148107
Fe	      6.40527      8.29888     10.19360        -0.238710      0.175885      0.330281
Fe	      4.22354      4.17893      4.00663         0.216565     -0.137647     -0.713154
Fe	      4.34012      2.16078      6.27818         0.118540     -0.198235     -0.171745
Fe	      2.16644      6.17625      4.09351         0.003916     -0.071845      0.196286
Fe	      4.22400      6.35018      6.24464         0.081952      0.251118      0.119181
Fe	      6.43419      6.11943      8.16286        -0.169042      0.199906     -0.051715
Co	      4.32085      4.09524      0.11712        -0.010577     -0.076827     -0.010834
O	      2.12440      2.08219      2.15407         0.032864     -0.000836      0.097718
O	      4.32550      4.15212      2.09957        -0.049680      0.036877      0.370688
O	      4.20579      2.06928      4.16672         0.097234     -0.072084     -0.006483
O	      6.51896      4.19053      4.08907         0.147699     -0.146974      0.033508
O	      6.30092      2.01873      6.08205         0.019759     -0.094802     -0.064493
O	      8.58525      4.25997      6.01504        -0.378015     -0.054956     -0.350020
O	      2.21630      4.15085      4.08680        -0.067493      0.392682      0.042074
O	      4.30933      6.19951      4.17200        -0.197937      0.123969     -0.073696
O	      4.31316      4.15073      6.04149         0.030166      0.050094      0.147988
O	      6.41242      6.25565      6.14843         0.025656      0.019269     -0.056876
O	      6.40790      4.25554      8.24034        -0.018539     -0.240919      0.066988
O	      8.49024      6.27283      8.24297        -0.018398      0.022277      0.414041
O	      2.22632      6.23364      6.05662         0.235680      0.019746     -0.251291
O	      4.28501      8.27770      6.16720        -0.025596      0.042180     -0.081185
O	      4.35561      6.21995      8.28808         0.002102     -0.044304      0.210654
O	      6.40513      8.20882      8.33281         0.082372     -0.089888     -0.132543
O	      6.37151      6.25627     10.30351         0.139883     -0.058769     -0.012906
O	      8.45622      8.38918     10.30826         0.029905     -0.197525     -0.065365
