# total energy = -222.14354042 eV
 
CRYSTAL
PRIMVEC
-0.002911 6.418897 6.079727 
6.410129 -0.007941 6.084833 
4.259981 4.269138 0.008503 
PRIMCOORD
36 1
Li	      6.42176      4.27441      2.13085        -0.011106      0.019308     -0.008859
Li	      4.25729      2.09618      2.09783         0.025953     -0.050286      0.029066
Li	      8.48363     10.59239     10.03356        -0.041804     -0.073878      0.024666
Li	      6.48519      8.58485     10.02949         0.010042      0.042442      0.015311
Li	      2.13151      4.23702      2.14323         0.025256     -0.019875      0.012352
Li	      2.16927      2.14340      3.93898         0.034540      0.006288     -0.066079
Li	      6.36934      4.32163     10.08549        -0.037373      0.050115      0.072159
Li	      8.51053      6.43899     10.10418        -0.013549      0.018735      0.046232
Li	      8.50029      8.56915      8.28864        -0.027851      0.010060      0.065016
Ti	      8.55510      6.27295      6.06271         0.182017     -0.392715     -0.365627
Cr	      4.25415      4.24752      3.99440         0.044499     -0.152851     -0.266375
Fe	      2.18659      8.51426      6.01088         0.030449      0.017115      0.153417
Fe	      0.07151      2.20077      2.11647        -0.027011     -0.118137     -0.041365
Fe	      6.38127      4.28247      6.04790         0.116924     -0.141087     -0.117798
Fe	      2.07574      4.34113      6.07826        -0.090893      0.102564     -0.022806
Fe	      4.24223      6.42347      6.12665        -0.060649      0.089798     -0.159030
Fe	      6.38855      6.44319      8.28783        -0.000900      0.017893      0.259338
Cu	      0.02842      6.37073      6.04457        -0.020864     -0.050805      0.022888
O	      2.03154      2.18996      1.88658        -0.001232      0.006788      0.072892
O	      4.23672      4.41858      1.95514        -0.015820      0.141762      0.263086
O	      4.24802      2.23921      4.16281        -0.018095      0.066958      0.235599
O	      6.28512      4.27171      4.12599        -0.055819      0.026595     -0.065985
O	      6.29387      2.22240      6.13507        -0.116189      0.188634     -0.017731
O	      8.44243      4.37367      6.03025        -0.148670      0.267959      0.025444
O	      2.24242      4.24259      4.16135         0.025812      0.025335     -0.076305
O	      4.28523      6.29179      4.08047        -0.017871      0.032047      0.074224
O	      4.27223      4.25793      6.01783        -0.019547      0.016470      0.019191
O	      6.47323      6.37634      6.14854        -0.017767      0.033923      0.015454
O	      6.39938      4.25563      8.05121        -0.004716      0.108480      0.059819
O	      8.51965      6.43565      7.99920        -0.048164      0.005588     -0.027836
O	      2.23515      6.38856      6.12444         0.141067     -0.001625     -0.001820
O	      4.27681      8.45808      6.07133         0.034982     -0.169744      0.024238
O	      4.38751      6.37561      8.03490         0.058674     -0.005345      0.165039
O	      6.40199      8.42531      8.02465         0.018925     -0.064351      0.119430
O	      6.41953      6.39898     10.19879         0.024833     -0.019992     -0.300985
O	      8.50332      8.55746     10.27529         0.021918     -0.034166     -0.236255
