# total energy = -227.38668540 eV
 
CRYSTAL
PRIMVEC
0.020455 6.317455 6.323834 
6.303747 0.015498 6.328908 
4.196755 4.209246 0.016206 
PRIMCOORD
36 1
Li	      4.16662      2.17051      2.17086         0.001015      0.031616      0.062257
Li	      6.27469      2.17908      4.18117        -0.051105      0.019140      0.000934
Li	      4.26098      6.29387      2.16346         0.039454     -0.038468      0.003987
Li	      2.13378      4.14713      2.17216         0.029628     -0.041103      0.037480
Li	      6.27192      6.27696      4.17666        -0.029189     -0.052730     -0.051260
Li	      4.25613      4.23561      4.13516         0.051255      0.017464     -0.076700
Li	      6.26955      4.25896      6.34890        -0.016500      0.018862      0.060397
Li	      4.24837      6.28708      6.30287         0.000795     -0.033251     -0.078785
Li	      4.23633      4.23221      8.39840         0.029334      0.013246     -0.049662
Ti	      4.31773      2.20790      6.30585         0.291786      0.184760     -0.162082
Cr	      6.29352      4.20428      2.13591        -0.055174     -0.003306     -0.015607
Fe	      4.15637      4.20985      0.12836         0.046490      0.134742     -0.136386
Fe	      2.08862      2.16155      0.09545        -0.101776     -0.081489     -0.038187
Fe	      8.28587      4.25295      4.21445         0.131174     -0.054861      0.037291
Fe	      0.03919      4.13926      4.14538        -0.005942      0.021137      0.007139
Fe	      8.49154      6.31887     10.45419        -0.078676      0.028827      0.081026
Fe	      6.28678      8.40255      6.36254         0.027083      0.094894     -0.066328
Fe	      6.26716      6.30118      8.42845        -0.063818      0.074964      0.110033
O	      2.11486      2.01955      1.99794         0.061892      0.020746      0.136049
O	      4.30831      4.18655      2.09136        -0.002162     -0.005286      0.261604
O	      4.21191      2.01391      4.40902        -0.023240      0.112268      0.227235
O	      6.37063      4.20949      4.11461        -0.158698      0.004652      0.049065
O	      6.24794      2.16040      6.35118        -0.198861      0.102235      0.017853
O	      8.36347      4.22605      6.27890        -0.187330      0.007854      0.031162
O	      2.05830      4.30591      4.30255         0.040880     -0.095367     -0.026788
O	      4.11815      6.38078      4.20022         0.138980     -0.068628      0.011161
O	      4.15772      4.07817      6.30364         0.022624     -0.193603      0.020657
O	      6.40004      6.38573      6.43476        -0.003536     -0.094388     -0.128638
O	      6.29197      4.33510      8.52507        -0.004809     -0.050336     -0.051390
O	      8.33628      6.32464      8.43402         0.018219      0.030086     -0.116460
O	      2.13945      6.30860      6.33634         0.153259      0.001488     -0.070302
O	      4.22156      8.40768      6.23443        -0.035076     -0.145546     -0.002492
O	      4.22374      6.31976      8.53565        -0.016446     -0.005786     -0.051658
O	      6.30199      8.43766      8.35346         0.042337     -0.032653      0.046934
O	      6.33507      6.30375     10.52130        -0.011378      0.027216     -0.025328
O	      8.45696      8.40655     10.69133        -0.082489      0.050603     -0.054211
