# total energy = -204.87790553 eV
 
CRYSTAL
PRIMVEC
0.001607 6.250590 6.244026 
6.199755 -0.019121 6.264884 
4.102439 4.149759 0.018148 
PRIMCOORD
36 1
Li	      6.27377     10.30721      8.40000         0.102294     -0.088326      0.034319
Li	      4.18246      8.23173      8.40690         0.070676     -0.105704     -0.001905
Li	      4.10135      6.31748     10.27423        -0.022078      0.027375     -0.064224
Li	      4.09271      4.16974      4.29013         0.035065     -0.009606      0.098791
Li	      4.00624      2.17723      6.19510        -0.038940      0.089070     -0.064414
Li	      6.06537      4.32618      6.29044        -0.026286      0.039168     -0.047197
Li	      6.26470      8.18970      6.30835         0.010686     -0.029306      0.076639
Li	      4.26856      6.08851      6.28756         0.003993     -0.044301      0.034001
Li	      6.11911      6.20491      8.13127        -0.014732      0.077952     -0.084367
Ti	      2.11194      2.03654      0.16156         0.126021     -0.172088      0.140001
Mn	     10.29255      4.12866      6.28985         0.116458     -0.025620     -0.225888
Cr	      6.09669      2.18627      4.11529        -0.108697      0.079406     -0.177863
Co	      8.26040      6.25458     10.43324         0.024362      0.031356     -0.026303
Cu	      8.21923      4.21371      8.34037        -0.090442      0.012994     -0.008743
Ni	     10.26069      6.22899      8.39070         0.001749      0.020523     -0.049473
Ni	      6.22988      6.16483      4.22674        -0.020951     -0.145849     -0.046494
Ni	      6.21984      4.15394     10.38454        -0.113033      0.068708      0.123309
Ni	      4.13948      4.20181      8.30593        -0.110143      0.049982     -0.033203
O	      4.11788      4.13333      6.41412         0.032212     -0.005167     -0.165880
O	      6.19040      6.26253      6.14926        -0.010224      0.027342      0.114853
O	      4.13728      6.06113      8.30688         0.004444      0.277496      0.062846
O	      2.04467      1.91980      2.01891         0.053654     -0.041243     -0.281714
O	      4.00620      4.20323      1.91209        -0.167575     -0.099775      0.068045
O	      4.19026      2.06936      4.13783         0.122063      0.015108      0.025096
O	      6.16761      4.00280      4.24723        -0.010975     -0.110593     -0.025235
O	      6.26704      1.92190      6.19198         0.053840     -0.062696      0.016768
O	      8.34824      4.01024      6.33326         0.004972     -0.002905      0.082525
O	      2.03150      4.32969      4.01359         0.161103      0.131361     -0.141064
O	      4.01602      6.28782      4.14903        -0.071040     -0.064378      0.096773
O	      6.23893      4.12075      8.35832         0.530271      0.092776     -0.147729
O	      8.25717      6.42526      8.53019        -0.064244     -0.206012      0.079697
O	      1.94035      6.30343      6.14944        -0.080480      0.062019      0.067456
O	      4.03204      8.45502      6.22764        -0.148801      0.092585      0.134283
O	      6.23012      8.27243      8.55520        -0.281262      0.039904      0.159279
O	      6.28824      6.31897     10.57220        -0.011064     -0.000991      0.121913
O	      8.21023      8.21904     10.52654        -0.062899     -0.020563      0.055098
