# total energy = -205.41012747 eV
 
CRYSTAL
PRIMVEC
-0.026543 6.142431 6.161643 
6.265543 -0.047081 6.183221 
4.162308 4.094820 -0.017091 
PRIMCOORD
36 1
Li	      8.30606      2.06529      6.27113        -0.039238      0.037501     -0.016186
Li	      2.08245      6.13368      8.23489         0.053235      0.040532      0.021882
Li	      4.09627      2.04634      2.08810         0.019919     -0.059600      0.059711
Li	      4.05096      0.03901      4.06332         0.023721      0.014877      0.003216
Li	      2.21610      1.96522      4.05290         0.016479     -0.035397     -0.008891
Li	      4.19567      4.02842      4.06261         0.009787      0.003298      0.026343
Li	      8.32111      6.07684      6.15803        -0.001442     -0.000003      0.002365
Li	      4.10375      4.14687      8.20755        -0.012013      0.015158      0.019192
Li	      6.21742      6.19006      8.17059        -0.019941      0.037117     -0.004860
Ti	      6.13234      4.05982     10.16854        -0.122043     -0.056358     -0.089454
Mn	      4.18726      6.10442      6.22781         0.076109     -0.041619      0.333172
Cr	      6.10796      2.07561      4.09741        -0.192051     -0.089907     -0.013884
Co	      6.24964      4.07706      6.18803         0.067208     -0.001542     -0.152936
Cu	      4.13565      4.06745      0.03382        -0.098132      0.060474     -0.099869
Cu	      2.07218      6.10826      4.07909        -0.153644      0.090196     -0.056798
Cu	      6.32547      8.10122      6.22276         0.025954      0.006737      0.017846
Ni	      0.03378      1.98444      2.01591        -0.010816      0.156583     -0.022175
Ni	      2.09729      4.07498      2.02407        -0.109915      0.014014     -0.046627
O	      2.25033      5.99599      6.10158        -0.062727     -0.037787      0.002623
O	      6.32295      8.15928      8.46654         0.039774     -0.004344      0.061592
O	      2.02027      2.18850      2.06943         0.113481     -0.318526     -0.047133
O	      4.16609      4.09551      1.90995         0.140034     -0.182775      0.041605
O	      4.31004      2.00527      4.13849         0.101031      0.069259      0.012474
O	      6.25802      3.98612      4.26555        -0.044083      0.088139      0.125129
O	      6.28222      2.11388      6.07366         0.028864     -0.140331     -0.043233
O	      8.15613      4.08553      6.30102        -0.112021      0.012028     -0.248639
O	      1.95656      4.12619      3.94948         0.018013     -0.124544      0.251394
O	      4.08965      6.21304      4.14460         0.263680      0.139256      0.130847
O	      4.22620      4.19169      6.16579         0.007691      0.021268     -0.015431
O	      6.11974      6.09299      6.14138        -0.013519      0.002155     -0.009604
O	      6.18513      4.05177      8.24942        -0.044602      0.056969      0.097488
O	      8.39802      5.94778      8.28080        -0.041768      0.188570     -0.050233
O	      4.27230      8.09455      6.01673         0.103332     -0.069021     -0.086315
O	      4.14550      6.18061      8.05798         0.002781     -0.022157     -0.268640
O	      6.27626      6.06558     10.41596        -0.144342     -0.057748     -0.000258
O	      8.40084      8.10377     10.30413         0.111202      0.187525      0.074287
