# total energy = -103.60080076 eV
 
CRYSTAL
PRIMVEC
2.122237 4.103461 2.049187 
4.240840 -2.035098 -2.078848 
0.028172 4.111800 -4.142871 
PRIMCOORD
16 1
Li	      2.16318      8.19338     -2.09552        -0.001443      0.000800     -0.020342
Li	      2.15525      2.10698     -0.00570        -0.006605      0.018974     -0.005397
Li	      4.25349      2.08885     -2.08152         0.012002      0.000578      0.015523
Li	      2.09300      4.09992     -2.07119        -0.022142     -0.015656     -0.007514
Ti	      0.09005      1.98966     -2.06890         0.175439     -0.232799     -0.005486
Ti	      4.20907      4.14352     -4.22205        -0.101199      0.104843     -0.037276
Ni	      4.23029      4.06784     -0.04394        -0.010993     -0.041596     -0.030012
Ni	      4.25559      6.17825     -2.10145        -0.072873      0.017803      0.026619
O	      1.98987      2.06674     -2.09496        -0.199983      0.077473      0.102614
O	      4.36485      4.13356     -2.15117         0.047173     -0.119536     -0.121785
O	      2.29386      4.09136     -4.17469         0.191662      0.133866      0.096720
O	      4.20361      1.96938     -0.01040         0.016114     -0.206151     -0.113057
O	      4.22258      0.03058     -2.06547         0.088859     -0.006281      0.026037
O	      2.18651      4.22404      0.01647        -0.115724      0.264709     -0.007945
O	      4.23550      2.10954     -4.14083         0.095120      0.005640     -0.015041
O	      2.04940      6.16620     -1.97756        -0.095407     -0.002667      0.096339
