# total energy = -203.93207908 eV
 
CRYSTAL
PRIMVEC
-0.000198 6.013374 6.272334 
6.218739 -0.017960 6.289128 
4.142962 4.018113 -0.009059 
PRIMCOORD
36 1
Li	      4.10182      4.02174      0.06428        -0.047485      0.034798      0.245781
Li	      6.20298      4.03930      2.20093        -0.199518      0.139126     -0.034717
Li	      8.22607      4.03403      4.15894        -0.067313      0.015853      0.139532
Li	      2.11731      4.02755      2.05956         0.041694     -0.035091     -0.080649
Li	      6.20735      5.92449      4.21582        -0.076592      0.034910     -0.046757
Li	      4.23265      4.02903      4.13670         0.033137      0.060962     -0.104024
Li	      6.22385      4.05064      6.15597         0.077354     -0.095344      0.051236
Li	      2.08290      5.98579      4.13586         0.158155     -0.071946     -0.043343
Li	      4.20508      6.00417      6.36901        -0.081297      0.010288     -0.119316
Ti	      2.17337      4.10644      6.25945         0.168013      0.550264     -0.352415
Mn	      8.27492      2.02138      6.30100        -0.216442      0.087655      0.596245
Cr	     10.34604      8.01868     10.46248         0.264578     -1.294296     -0.259670
Co	      4.14591      5.96327      2.07653         0.162610      0.157554      0.245253
Ni	      4.09723      2.01614      2.18504        -0.310173      0.503352     -0.186489
Ni	      6.19568      2.00881      4.18567        -0.698742      1.015750      0.187710
Ni	      8.28084      5.94417      6.22173         0.322758     -0.154565      0.137323
Ni	      4.12805      4.04654      8.38385         0.229225     -0.214157     -0.031822
Ni	      6.21559      5.97757      8.32872        -0.047885     -0.299080     -0.115053
O	      6.21298      3.92568      4.19898         0.274105     -0.697461     -0.124612
O	      2.00992      2.00602      1.93703        -0.009818     -0.022990     -0.201838
O	      4.11476      4.12046      2.12655         0.025098     -0.294299      0.031905
O	      4.23300      2.00996      4.20484         0.481803     -0.318008      0.059579
O	      6.31867      1.97362      6.38411         0.129332     -0.028914     -0.543652
O	      8.28676      3.88892      6.27706         0.002340     -0.115810     -0.134551
O	      1.89146      3.97542      4.34024        -0.057580      0.084740      0.191380
O	      4.11803      6.13378      3.98893         0.086778      0.234745      0.160930
O	      4.03185      4.01038      6.28765        -0.293139      0.152222     -0.139841
O	      6.24757      6.09967      6.33226        -0.247048     -0.008682      0.140388
O	      6.18170      3.91278      8.49084         0.085860      0.363818      0.182343
O	      8.39468      6.04195      8.27628        -0.364781      0.021419      0.086594
O	      2.07325      6.00681      6.25346         0.046840     -0.306250      0.043079
O	      4.05319      8.01914      6.21270         0.101935     -0.030816     -0.134503
O	      4.23122      6.02817      8.37201         0.118870     -0.026444      0.060246
O	      6.18575      8.01511      8.30926         0.057514     -0.150281      0.183347
O	      6.25114      5.89675     10.34951         0.109026      0.650096     -0.031535
O	      8.35274      7.98226     10.57125        -0.259214      0.046883     -0.058084
