# total energy = -208.64889270 eV
 
CRYSTAL
PRIMVEC
0.013618 6.180217 6.120110 
6.216929 -0.002190 6.136130 
4.144749 4.130943 -0.001692 
PRIMCOORD
36 1
Li	      6.23274      0.01899      6.14000         0.053671     -0.003829     -0.047313
Li	      8.18544      2.11381      6.08328         0.079647     -0.199415      0.021742
Li	      4.14795      2.08810      2.05768         0.042200     -0.040704     -0.030511
Li	      6.23995      2.02325      4.19375        -0.008086     -0.010048     -0.126697
Li	      4.11661      4.05188      4.09352         0.006800     -0.029267      0.006715
Li	      4.22207      2.07224      6.13862        -0.120545     -0.033778     -0.013092
Li	      6.22474      4.10827     10.19564         0.031793      0.041380     -0.002142
Li	      8.23052      6.32543     10.16204        -0.068073      0.101812      0.197732
Li	      8.31921      8.17800      8.21286        -0.031343      0.069681     -0.012487
Ti	      8.40287     10.23141     10.30529         0.232573     -0.059646     -0.146427
Mn	      6.15230      4.13532      2.02774         0.328479     -0.214304     -0.175687
Cr	      4.14656      6.21567      6.09441        -0.078762     -0.073880      0.283810
Co	      6.21028      2.06471      8.16700        -0.485363     -0.004717     -0.343915
Co	      2.09058      4.12250      6.10231        -0.178564      0.028620     -0.208997
Cu	      6.31314      6.18609      8.19804         0.024965      0.056288      0.051661
Ni	      2.11308      4.13569      2.01759         0.148485     -0.377241      0.106729
Ni	      2.09738      2.05611      4.07600         0.245805     -0.078009      0.203668
Ni	      6.17551      4.03367      6.13541        -0.117071      0.587511     -0.229084
O	      1.95145      1.98672      2.01420         0.294815      0.313340     -0.037830
O	      4.22053      4.24800      2.03081        -0.122172     -0.254689      0.007347
O	      3.99806      1.95980      4.07257         0.140761     -0.073116      0.013004
O	      6.24474      4.20377      3.99530         0.051828     -0.095801      0.047215
O	      6.18630      2.08618      6.27014        -0.019083     -0.313444      0.326133
O	      8.26141      4.11315      6.06566         0.107226      0.020521     -0.176645
O	      2.12109      3.96326      4.20820         0.014002      0.060368     -0.649744
O	      4.32622      6.19911      4.07493        -0.241516     -0.001776     -0.089350
O	      4.04590      4.21565      6.12816         0.221487     -0.033341     -0.024094
O	      6.16595      6.26803      6.23136        -0.049740     -1.105715     -0.043475
O	      6.30414      4.02102      8.11934        -0.131607     -0.087215      0.331412
O	      8.43021      6.09915      8.24391         0.175735      0.415683     -0.053157
O	      2.13343      6.07954      6.17098         0.130759      1.237367      0.090172
O	      4.35388      8.19788      6.11205        -0.252127     -0.055367     -0.059074
O	      3.97322      6.21053      8.13364        -0.110532      0.010337      0.004969
O	      6.19905      8.37665      8.01545        -0.010663      0.016142      0.459682
O	      6.14074      6.23072     10.11148        -0.265603     -0.001609      0.330997
O	      8.26762      8.37990     10.21709        -0.040184      0.187859     -0.013265
