# total energy = -208.65464838 eV
 
CRYSTAL
PRIMVEC
0.012460 6.261116 6.313881 
6.106588 0.005243 6.321799 
4.092486 4.200729 -0.018559 
PRIMCOORD
36 1
Li	     10.14133     10.43728     12.56908        -0.006909      0.030730     -0.097549
Li	      2.15580      8.34481      6.32422         0.012019     -0.012056     -0.065401
Li	      2.11499      6.30178      8.34739         0.043557     -0.018146     -0.012895
Li	      3.98193      2.07698      2.10113         0.034985      0.031518     -0.041286
Li	      4.11189      6.21308     10.50561         0.038628     -0.096646     -0.010154
Li	      2.06757      4.14622      2.09542        -0.026488      0.007615     -0.032794
Li	      4.07110      8.39141      4.26216        -0.108259      0.081070     -0.020108
Li	      8.15897      6.33019     10.54047        -0.127824      0.127848      0.016908
Li	      4.08335      6.34738      6.34047        -0.027268      0.005875      0.045287
Ti	      1.92966      4.41683      6.27372        -0.284292      0.572632     -0.088635
Mn	      6.15086      4.15435      6.31755         0.023791      0.003925      0.064284
Cr	      4.16565      6.18040      2.09655        -0.067854     -0.109628      0.023668
Co	      6.14339      8.29293     10.51596         0.121444     -0.155835     -0.149207
Co	      4.08852      4.21847      8.45030         0.031740      0.077506      0.361455
Cu	      2.05748      2.09082      4.18425         0.196639     -0.022292      0.012693
Cu	      4.06884      4.17636      4.15284         0.115294     -0.082212      0.029204
Ni	      8.16449      6.23439      6.29302         0.080144     -0.040495      0.038827
Ni	      6.12109      6.28238      8.45901        -0.011241     -0.068487      0.168733
O	      4.17957      6.17358      4.06411        -0.036376      0.032451     -0.078816
O	      1.93680      2.12042      2.18930        -0.073273     -0.020216      0.017763
O	      4.02182      4.39771      1.96533         0.030306      0.195165      0.084441
O	      4.09807      2.17068      4.22733        -0.067307      0.205676     -0.135276
O	      6.06037      3.98177      4.40374        -0.172837      0.008646      0.001281
O	      6.12705      2.22218      6.41057         0.117708      0.034234     -0.328128
O	      7.99664      4.19697      6.31399         0.035883     -0.081293      0.078286
O	      2.09763      4.24777      4.37744        -0.015913      0.019439      0.067121
O	      4.12480      4.12771      6.52155        -0.101063      0.064220     -0.089251
O	      6.12287      6.11202      6.25839        -0.056446      0.032233     -0.030618
O	      6.04665      4.14854      8.33542        -0.003539     -0.166823     -0.017737
O	      8.25968      6.46674      8.38220         0.114704     -0.030902      0.064258
O	      2.06371      6.22286      6.32156        -0.045389     -0.601349     -0.038241
O	      4.19872      8.37708      6.33574         0.395479      0.043483     -0.038567
O	      4.11790      6.05683      8.42188        -0.107408      0.009942     -0.086553
O	      6.26674      8.33292      8.28958        -0.104170      0.103989      0.363616
O	      6.11334      6.46167     10.46749        -0.037634     -0.222804      0.048253
O	      8.07041      8.37068     10.30862         0.089169      0.040985     -0.124863
