# total energy = -207.89872516 eV
 
CRYSTAL
PRIMVEC
0.030028 6.101391 6.433162 
6.174390 0.001555 6.463466 
4.100616 4.071086 0.018165 
PRIMCOORD
36 1
Li	     10.19750      4.11715      6.45903        -0.066272      0.074508      0.027109
Li	      8.15884      2.07426      6.38779        -0.041245      0.076296      0.002673
Li	      4.09354      8.10035      8.58860         0.013724     -0.001409      0.043105
Li	      6.23679      1.99551      4.44749        -0.041448     -0.028914      0.068583
Li	      8.26340      4.03176      8.27899        -0.188793     -0.062282     -0.006351
Li	      8.31848      5.99854      6.48910         0.035270     -0.062726     -0.030309
Li	      6.31772      4.00432      6.46384        -0.037168     -0.027888      0.209676
Li	     10.22414      8.15987     10.82419        -0.010529      0.036119     -0.209267
Li	      8.22856      8.11423      8.76756         0.172730     -0.064825      0.004904
Ti	      4.12591      3.98894      4.34122        -0.047230     -0.248943     -0.226894
Mn	      6.13949      2.04969      8.49544         0.056442      0.648067      0.092016
Cr	      6.12929      8.18585      6.57183         0.228635     -0.389221      0.329662
Co	      6.17164      4.07488      2.22716         0.131807     -0.006615      0.177641
Co	      6.25086      5.90001      8.62461        -0.288484      1.427818      0.102945
Cu	      8.27926     10.09697     10.82545         0.342942     -0.086436     -0.097477
Cu	      8.21209      6.17013     10.74210        -0.170900      0.178473     -0.368945
Cu	      4.12485      6.16392      6.52997         0.143632     -0.041474      0.045283
Ni	      6.10994      6.15542      4.31949        -0.049351      0.039327     -0.050256
O	      6.30542      6.15125     10.53782        -0.311234     -0.447645     -0.033194
O	      8.20996      8.06948     10.79628         0.227428      0.171177      0.036203
O	      1.93685      1.95005      2.24918        -0.105569      0.881403     -0.170305
O	      4.18344      4.16297      2.25192        -0.715321     -0.029159      0.169615
O	      4.05218      2.14569      4.27914         0.106157      0.301791      0.084045
O	      6.05149      4.10621      4.21475        -0.073981     -0.186891      0.417899
O	      6.19086      2.03283      6.66123         0.005854     -0.150919     -0.085787
O	      8.26202      4.04433      6.24133         0.068265      0.016299      0.067103
O	      2.11966      4.16169      4.49718         0.008255     -0.099248      0.203414
O	      4.02555      6.09095      4.08501         0.115166     -0.128705      0.015790
O	      4.03679      4.18131      6.27384        -0.162763      0.182394      0.011436
O	      6.09205      6.19768      6.50932        -0.152028     -0.020557      0.114342
O	      6.21199      4.06288      8.52760         0.105992     -0.975784     -0.188315
O	      8.28495      6.06433      8.47401        -0.143272      0.025362      0.321890
O	      2.16892      6.07949      6.72857         0.120675      0.057044     -0.663484
O	      4.29913      8.13575      6.46574        -0.116168     -0.146357     -0.009940
O	      4.09381      6.08672      8.88375         0.823502      0.015605     -0.098782
O	      6.22860      8.17926      8.42656         0.015280     -0.925685     -0.306025
