# total energy = -208.61438832 eV
 
CRYSTAL
PRIMVEC
-0.038588 6.496456 5.972682 
6.229217 -0.045150 5.979184 
4.130367 4.312508 -0.007628 
PRIMCOORD
36 1
Li	      4.18307      2.14863      2.02371         0.062433     -0.053561     -0.016226
Li	      4.10793      0.02461      3.97563         0.071078      0.020863     -0.066974
Li	      6.17072      8.60116      9.94529        -0.015022     -0.102648      0.002334
Li	      4.12736      4.20481      4.00699         0.014427     -0.003781      0.016156
Li	      4.08576      2.34076      5.92256        -0.006534     -0.044438     -0.037699
Li	      4.11471      8.65241      4.01199        -0.058798      0.021682      0.073834
Li	      8.25509      6.50507      9.99452        -0.042158      0.046678     -0.002644
Li	      2.16701      4.28542      5.95658        -0.085498      0.018555      0.052580
Li	      4.09548      6.42274      5.93230        -0.031875      0.020630      0.029103
Ti	      4.02050      6.44056      2.06028        -0.207740     -0.023144      0.286007
Mn	      2.14240      2.19836      4.05513         0.042736      0.006597      0.074532
Cr	      6.20492      6.42191     11.88302         0.033865     -0.163549     -0.183336
Co	      8.28539      8.59587     11.87436         0.289193     -0.094206     -0.090641
Co	      6.08644      6.56200      7.99770        -0.150065      0.076042      0.091136
Cu	      2.10719      6.44786      7.98130         0.183194      0.033049     -0.023891
Cu	      2.03988      4.29988      2.03355         0.023679      0.205905     -0.080379
Cu	      6.16433      4.30657      5.91136        -0.010969      0.171484     -0.185961
Cu	      8.21726      8.65576      7.97236        -0.080294     -0.234664      0.353224
O	      4.11005      6.35436      7.95279         0.033407      0.476988      0.020331
O	      6.26327      8.51899      7.96893        -0.074112      0.111605     -0.051547
O	      8.25136      8.55878     10.02532        -0.084716     -0.018235     -0.679175
O	      1.97170      2.29867      2.00274         0.060800     -0.123028      0.293158
O	      4.28273      4.46471      1.92490        -0.172421      0.049538      0.102183
O	      3.99133      2.15496      3.98923        -0.046550      0.059736      0.004728
O	      6.20069      4.53425      3.97279         0.005311     -0.063254      0.013757
O	      6.37701      1.95707      5.99695        -0.055078      0.011615      0.115787
O	      8.29859      4.06054      6.01732        -0.101269      0.046970      0.149432
O	      2.06844      4.12463      3.96358         0.009996     -0.004614     -0.034723
O	      4.23503      6.48556      3.90492         0.007418     -0.040262     -0.345001
O	      4.20298      4.31845      6.04345         0.050467     -0.089495      0.019442
O	      6.20412      6.54076      6.01125         0.026748     -0.024457     -0.003420
O	      6.05758      4.14361      7.89038         0.141842     -0.105406      0.067528
O	      8.34266      6.31594      7.94814         0.199436     -0.257308      0.023938
O	      1.99175      6.65186      5.98723        -0.001570     -0.021883      0.010940
O	      3.91431      8.78446      6.00368        -0.031309      0.096081     -0.000823
O	      6.20475      6.39438      9.83818        -0.000054     -0.006083      0.002311
