# total energy = -211.50561305 eV
 
CRYSTAL
PRIMVEC
-0.021390 6.209372 6.289236 
6.175430 0.000690 6.267139 
4.120557 4.128614 -0.003139 
PRIMCOORD
36 1
Li	      4.16892      8.21760      8.47875        -0.029061     -0.054769      0.045572
Li	      4.13697      6.24958     10.39084        -0.028016     -0.052560     -0.100683
Li	      6.09303      6.26529      4.21171        -0.005478     -0.037983     -0.001308
Li	      4.08680      4.16077      4.21574         0.050549     -0.022374      0.004897
Li	      8.24658      6.16310     10.37341        -0.035069      0.078436     -0.030507
Li	      2.06651      4.13238      6.18372         0.027886      0.065331     -0.068717
Li	      4.16832      6.11946      6.30134        -0.055170     -0.007099      0.181109
Li	      8.17908      8.25658      8.37101         0.012953      0.053560      0.008228
Li	      6.07668      6.29347      8.38116         0.021662     -0.040485      0.003175
Ti	      2.17510      8.17470      6.23275         0.284759     -0.468860     -0.198454
Mn	      6.10610      4.17868      6.23986        -0.093513     -0.069125     -0.112876
Cr	      2.07600      4.14998      2.14778        -0.064232     -0.042693      0.128525
Co	      2.18922      6.15415      8.44945        -1.056961      0.078219     -0.223261
Co	      6.10931      2.02479      4.17005         0.078203      0.016879     -0.143475
Co	     10.26653      6.20613      8.36675        -0.036385      0.083474      0.020494
Cu	      0.04060      4.11072      4.17613        -0.252948      0.144954      0.006048
Ni	      6.15610      6.21488     12.54474         0.081679      0.020691     -0.016692
Ni	      4.05172      2.10794      6.24964        -0.004181      0.055127     -0.025302
O	      1.93434      2.08865      2.00760         0.113100     -0.004178     -0.030140
O	      4.11195      4.28374      2.05518         0.258515     -0.027634      0.069871
O	      4.29414      2.06402      4.23501         0.041341     -0.006882     -0.115640
O	      6.18214      3.95224      4.24866         0.133254     -0.069903      0.050182
O	      6.19909      2.12775      6.25769         0.105451      0.096390      0.034229
O	      8.15677      4.06373      6.35038        -0.021111     -0.074400      0.085577
O	      1.98173      4.14186      4.09892         0.064544      0.019520     -0.111995
O	      4.09954      6.29936      3.96855        -0.007965     -0.065761     -0.155541
O	      4.23847      4.13133      6.26501        -0.028066      0.087220     -0.065416
O	      6.17253      6.03996      6.24316        -0.148788      0.082423     -0.015382
O	      6.21624      4.04869      8.20702         0.054946     -0.076706      0.173022
O	      8.34776      6.13122      8.29697         0.082740     -0.079105      0.095279
O	      2.01236      6.28170      6.37327         0.253110      0.376732      0.003512
O	      4.01344      8.32025      6.34537        -0.213327     -0.121450     -0.045288
O	      3.96092      6.22487      8.39564         0.086349     -0.193064      0.110104
O	      6.12467      8.32272      8.58684         0.266118      0.279861      0.233165
O	      6.15461      6.34415     10.52337         0.035405      0.020558     -0.081092
O	      8.12485      8.27556     10.59794         0.027707     -0.044343      0.288779
