# total energy = -212.29733662 eV
 
CRYSTAL
PRIMVEC
-0.008557 6.273140 6.215260 
6.121919 0.005245 6.201591 
4.102847 4.195016 -0.018577 
PRIMCOORD
36 1
Li	      6.14256      6.35760     12.32181        -0.017479     -0.043346     -0.005169
Li	      6.18293      8.31978     10.36708         0.056188      0.035577      0.001888
Li	      6.07027      2.12692      8.21254         0.040201     -0.002227     -0.016288
Li	      6.08184      6.33408      4.16852        -0.024144     -0.020599     -0.003200
Li	      4.04598      4.26627      4.16259        -0.017455      0.079351      0.045041
Li	      8.11280      6.28961     10.30826         0.043607      0.023830      0.011414
Li	      2.12382      4.14478      6.19137         0.018903      0.017844      0.037649
Li	      8.14651      8.34175      8.20890        -0.039825      0.052980     -0.067457
Li	      6.22164      6.21949      8.27523        -0.053043      0.033835     -0.041554
Ti	      4.22586      2.10858      2.20637         0.169008     -0.072275     -0.091680
Mn	      8.12253      4.21733      8.23941         0.198735     -0.320808      0.103950
Cr	      6.09310      4.18917      6.09899        -0.133113      0.068353     -0.131852
Co	      2.04169      2.05570      0.04123         0.043115     -0.127419      0.084744
Co	      6.07867      4.22542      2.11121         0.156574     -0.046380      0.032394
Co	      4.12579      6.33000      6.20201        -0.499838      0.128495      0.272780
Cu	      4.07626      2.13394      6.16517         0.172600      0.048896     -0.205540
Cu	      4.08821      8.38237      4.14209        -0.040200     -0.178711      0.075748
Ni	      8.22454     10.41668     10.33317         0.039760      0.024050     -0.042892
O	      6.09089      6.06837     10.33497         0.186773      0.120339     -0.051206
O	      2.05492      2.18161      2.00175        -0.021341      0.092021     -0.013315
O	      4.00114      4.08435      2.12449         0.021600     -0.082630      0.035486
O	      4.09680      2.02842      4.11010         0.063268      0.161868      0.020793
O	      6.21779      4.21839      4.04820        -0.154043     -0.063189     -0.054288
O	      6.17234      2.17792      6.11691        -0.092428     -0.064893     -0.025929
O	      8.15164      3.98983      6.24200         0.055486     -0.017124      0.106588
O	      1.88844      4.21134      3.94907         0.047697      0.052207     -0.172968
O	      4.04617      6.49045      4.33538         0.105155     -0.086312      0.009419
O	      4.14348      4.38645      6.14211        -0.021650      0.282960     -0.014114
O	      6.18420      6.22732      6.16209        -0.642309     -0.032340      0.059651
O	      6.24611      4.17574      8.05075        -0.061662     -0.014156      0.069985
O	      8.21523      6.10991      8.10667        -0.026026      0.136753     -0.025198
O	      2.00112      6.40549      6.42382         0.754588      0.039194     -0.172022
O	      3.95765      8.26036      6.42469         0.075270     -0.158366      0.112376
O	      4.01446      6.36896      8.23025        -0.077965      0.066979     -0.050723
O	      6.06420      8.40833      8.27409        -0.247218     -0.013923      0.090033
O	      8.31354      8.37127     10.52794        -0.078791     -0.120832      0.015457
