# total energy = -211.15873220 eV
 
CRYSTAL
PRIMVEC
0.024680 6.393959 6.097246 
6.227873 0.027611 6.094696 
4.185334 4.294358 -0.016003 
PRIMCOORD
36 1
Li	      0.08972      6.33544      6.05304        -0.082859      0.014355     -0.072748
Li	      8.24226      2.17024      6.09483         0.043374      0.052874     -0.145918
Li	      8.42925     10.62833     10.16633         0.054472     -0.120331      0.079639
Li	     10.30933      6.42562      8.01396        -0.043614      0.041033     -0.031232
Li	      4.22334      2.11974      6.10500         0.019940     -0.061210     -0.015775
Li	     10.29587      8.67325     10.27205        -0.189411      0.004151      0.049122
Li	      2.11062      6.46213      4.10876        -0.034843      0.141600     -0.067517
Li	      4.08019      6.44879      6.13071         0.018577      0.061075     -0.005485
Li	      8.39581      8.52691      8.11270        -0.054500     -0.064785      0.198031
Ti	      6.02210      6.44234      4.07839        -0.109113      0.113990      0.146706
Mn	      8.29028      4.31532      8.09117        -0.189991      0.015117     -0.271561
Cr	      6.26601      6.40320      8.13314         0.153055      0.076954      0.119517
Co	      4.22982      8.55515      8.07913         0.168482     -0.053164      0.091989
Co	      6.41974      8.43703     10.20201        -0.729209      0.064206     -0.196030
Co	      2.13754      4.37337      6.10722         0.025980      0.100489     -0.102717
Cu	      2.21946      6.44386      8.10377         0.008669     -0.108963      0.054350
Cu	      4.14938      4.28493      4.06445         0.069570     -0.124546      0.150543
Cu	      6.24107      4.26030      6.04580         0.057744     -0.093535     -0.075113
O	      2.11605      6.32737      6.22678        -0.002667     -0.162720      0.062956
O	      8.20879      8.56267     10.13999         0.436066     -0.079516      0.155062
O	      2.04239      2.29879      2.11827         0.086090     -0.010053      0.149831
O	      4.03973      4.19202      2.07816         0.045595      0.043497      0.128273
O	      4.38077      2.29821      3.88765        -0.054418      0.227434      0.085582
O	      6.43898      4.51113      3.97865        -0.027312      0.171705     -0.195302
O	      6.19764      2.28473      5.97373         0.267089     -0.088492     -0.318436
O	      8.29403      4.26936      6.22458         0.075932      0.081380      0.153565
O	      1.93416      4.11487      4.00957        -0.004020     -0.202580     -0.167762
O	      4.20520      6.34499      4.04793         0.173151     -0.245384      0.030517
O	      4.09924      4.27312      6.01415         0.021546      0.062945     -0.369087
O	      6.29196      6.41516      6.01714        -0.023591      0.133229     -0.182034
O	      6.31086      4.39166      8.03822        -0.018075     -0.083239      0.182986
O	      8.27030      6.20494      8.13955         0.025064      0.003255     -0.044634
O	      4.37014      8.58272      6.23169        -0.116744     -0.035859     -0.052887
O	      4.26341      6.62198      8.11663        -0.045711      0.041365     -0.028168
O	      6.39428      8.38585      8.14212        -0.068807      0.045076      0.630527
O	      6.24217      6.46390     10.10084         0.044487      0.038649     -0.126788
