# total energy = -211.02065591 eV
 
CRYSTAL
PRIMVEC
-0.092620 6.274550 6.197811 
6.175156 -0.038102 6.143919 
4.096925 4.125732 -0.005429 
PRIMCOORD
36 1
Li	      4.08979     10.24410      6.20577         0.076120     -0.114100     -0.047634
Li	      2.08687      6.20896      8.14819         0.064386     -0.076335     -0.088737
Li	      4.08240      8.21028      8.11049         0.012829     -0.104645     -0.095881
Li	      3.97956      6.29452     10.14009        -0.014607      0.018760     -0.033422
Li	      2.06021      2.06144      4.11002        -0.025439     -0.023628      0.110859
Li	      5.96304      8.34936      6.34758        -0.154382      0.001894      0.090217
Li	      4.03556      6.33245      6.36036         0.075791      0.072332     -0.021750
Li	      3.94885      4.33394      8.19506        -0.104524      0.086399      0.013105
Li	      5.91903      6.31957      8.20062        -0.027011      0.116661     -0.043633
Ti	      4.16262      4.09168      4.11445         0.126151     -0.003874      0.296710
Mn	      8.13406      6.22369     10.29868        -0.029763      0.055495      0.403756
Cr	      8.14086      6.17685      6.19743        -0.182399     -0.024697     -0.055038
Co	     -0.00471      2.09604      2.05763         0.593030     -0.114180     -0.015961
Co	      2.02112      4.13324      2.06296         0.041045      0.115484      0.072832
Co	      6.12897      4.14364      6.20200         0.005951      0.149193     -0.085372
Ni	      2.01553      8.31227      6.22493         0.047400     -0.109576     -0.193193
Ni	      6.09648      8.27694     10.19788         0.014511      0.014421     -0.000846
Ni	      4.03529      8.33136      4.16677         0.001107     -0.028856      0.198219
O	      3.99012      6.25147      8.27539         0.018052     -0.031557      0.029306
O	      6.07169      8.34462      8.26558        -0.010252      0.066463     -0.074974
O	      1.89647      2.22435      2.04581         0.178836      0.023915      0.296758
O	      3.99114      4.25295      2.13519        -0.008987      0.122541     -0.030419
O	      4.09996      2.17311      4.18147        -0.198976      0.214880      0.077506
O	      6.05806      4.12797      4.23830        -0.173597      0.100886     -0.028971
O	      6.11573      2.17700      6.23517        -0.305439      0.008920     -0.640961
O	      8.08276      4.13878      6.27325        -0.123160      0.183871      0.038596
O	      2.04962      4.26003      4.01919         0.193129     -0.033203     -0.088569
O	      3.97051      6.18081      4.00510        -0.064782     -0.184038      0.569385
O	      4.13573      4.07839      6.09982         0.234745     -0.097771     -0.117760
O	      6.20809      6.04354      6.19704         0.007140     -0.049162     -0.007506
O	      6.26926      3.99206      8.15118        -0.010153     -0.148541     -0.061713
O	      8.32034      6.05789      8.23367        -0.339121     -0.073293     -0.154400
O	      1.98287      6.25987      6.00691         0.018807     -0.128835     -0.170777
O	      3.98886      8.31225      6.13666         0.127774      0.115167      0.068922
O	      6.26897      6.21290     10.23972        -0.058473      0.011588     -0.038112
O	      8.15791      8.12794     10.28138        -0.005736     -0.132574     -0.170543
