# total energy = -213.22922960 eV
 
CRYSTAL
PRIMVEC
-0.066286 6.305233 6.242777 
6.101739 -0.017137 6.193171 
4.067794 4.170410 -0.011628 
PRIMCOORD
36 1
Li	      8.04817      2.22919      6.30618         0.150251     -0.057761      0.046263
Li	      6.07441      4.22640      2.17710         0.073867      0.082356     -0.018270
Li	      8.04262      4.26285      4.25270         0.002627      0.002257     -0.034803
Li	      0.06053      1.97031      2.03288        -0.024468      0.020422      0.067629
Li	      2.06678      4.14800      1.98840        -0.000045     -0.040658      0.150975
Li	      2.08081      2.01908      4.04952         0.036239      0.006988     -0.018961
Li	      4.13033      4.10083      4.11534        -0.090501      0.003041     -0.034887
Li	      4.10841      2.01929      6.12402        -0.119782      0.034638      0.059709
Li	      8.04635      8.33988      8.24707         0.024549     -0.023719      0.015343
Ti	     10.03470      8.32967     10.25216         0.305057     -0.078165     -0.128381
Mn	      4.02420      6.25888      6.21847        -0.094024      0.154711     -0.030471
Cr	      6.06682      6.30660      8.30461        -0.012487      0.026598      0.006787
Co	      4.01361      2.14277      2.13455        -0.353108      0.040536     -0.122314
Co	      6.09172      2.13113      4.15313         0.002792      0.179065     -0.694898
Co	      2.01261      6.25744      4.12432         0.003772     -0.176402     -0.056236
Co	      2.01013      4.19642      6.21645         0.452634     -0.456596      0.500512
Cu	     10.00932      4.27484      6.25740         0.207331      0.147149     -0.077116
Ni	      6.12840      4.12637      6.17360        -0.305138      0.305685      0.111683
O	      8.07906      4.20737      6.21180         0.083509      0.025625     -0.045838
O	      2.19006      2.07824      2.10780        -0.074125     -0.029598     -0.036309
O	      4.06856      4.07106      1.93794         0.223875     -0.058052      0.175271
O	      4.20735      2.09280      4.07204        -0.502318     -0.286155     -0.048254
O	      6.11402      4.00231      4.16752         0.182624      0.854329      0.058281
O	      6.09605      2.13879      6.03756        -0.083592     -0.388291      0.620486
O	      1.88596      4.26560      4.30401        -0.342044      0.428574     -1.402612
O	      4.09170      6.40137      4.23516         0.001663      0.081495      0.023116
O	      3.96368      4.34795      6.21998         0.776361      0.024571      0.102559
O	      5.99208      6.36620      6.28917        -0.047728     -0.766631      0.134485
O	      6.05059      4.26397      8.37785        -0.055291      0.006349      0.145723
O	      8.02139      6.28560      8.41327         0.015564      0.048019      0.092224
O	      2.08935      6.12255      6.12021         0.049820      0.963357     -0.159711
O	      4.12620      8.24010      6.15223        -0.991403     -0.067372      0.007323
O	      4.05795      6.36656      8.12034        -0.000981     -0.035210     -0.076020
O	      5.93053      8.31479      8.27223         0.160417     -0.021657      0.779086
O	      5.98452      6.24395     10.35994         0.024311     -0.645690     -0.095774
O	      8.09222      8.27342     10.37662         0.319772     -0.303807     -0.016602
