# total energy = -213.63513070 eV
 
CRYSTAL
PRIMVEC
0.041468 5.990525 6.515383 
6.161267 0.002365 6.554240 
4.107183 4.019074 0.002695 
PRIMCOORD
36 1
Li	      8.20295      2.05986      6.58105        -0.056873     -0.027803      0.043465
Li	      6.18015      9.92645      8.72890        -0.019348      0.036206      0.004656
Li	      6.25140      7.96434     10.83238        -0.036426     -0.005117      0.017354
Li	      6.17949      2.09040      8.64461         0.042927     -0.076448     -0.060837
Li	      8.15867      4.07335      8.71937         0.097546     -0.118932      0.011206
Li	      6.17762      3.98008      6.71949         0.029261     -0.057244     -0.038627
Li	      6.08726      4.08266     10.70195         0.049756      0.023587      0.037064
Li	      2.12704      3.99541      6.56587        -0.134345      0.125666     -0.044460
Li	      8.24813      7.99891      8.89423        -0.020726      0.097501      0.019424
Ti	      2.04805      2.02779      4.20898        -0.048798      0.085381     -0.232328
Mn	      4.17031      6.01560      6.46038        -0.192641      0.188962     -0.106587
Cr	      4.16644      7.96245      8.67958        -0.086392      0.150104     -0.157427
Co	      6.20039      0.08482      6.56401        -0.097575     -1.004419      0.567007
Co	      4.14405      3.99209      4.27385        -0.028060     -0.066859     -0.210829
Co	      8.21171      6.05980      6.60269        -0.286680      0.367577     -0.231119
Co	      8.24241      6.05143     10.93914        -0.098862      0.237311     -0.035741
Cu	      8.14344      3.85312      4.60433         0.200275     -0.002435     -0.091992
Cu	      6.19589      5.96940      8.73276        -0.208091      0.074465     -0.037307
O	      8.22557      7.98516     10.90611         0.033115      0.295493      0.162027
O	      2.07515      2.00163      2.31904         0.075697     -0.015785      0.250450
O	      4.14265      3.93144      2.27968        -0.046212      0.036749     -0.029873
O	      4.02058      1.79568      4.22808        -0.084971      0.323142      0.010736
O	      6.02508      4.06215      4.25042         0.217100      0.008218      0.028642
O	      6.05029      1.91991      6.68411         0.342877      0.503572     -0.064503
O	      8.28132      4.11483      6.54700        -0.082796     -0.276374      0.132104
O	      2.23721      4.03074      4.30674         0.054144     -0.678913     -0.073359
O	      4.13997      6.14012      4.47611         0.435497     -0.117634     -0.120698
O	      4.15887      4.02919      6.23360         0.018905     -0.253865      0.353320
O	      6.15555      6.03032      6.25368         0.269328     -0.040275     -0.035228
O	      6.17803      4.14462      8.71725        -0.016261     -0.244720     -0.026946
O	      8.06896      6.03836      8.98795        -0.047798     -0.006059     -0.127146
O	      2.19432      6.02133      6.36453         0.008586      0.001059     -0.011324
O	      4.14999      8.02030      6.69130         0.038225      0.311826      0.069396
O	      4.24352      5.95909      8.39464         0.134634     -0.067888      0.120290
O	      6.13087      7.83512      8.70793         0.071491      0.162530     -0.018648
O	      6.39542      5.96494     11.16133        -0.526508      0.031423     -0.072161
