# total energy = -214.15776413 eV
 
CRYSTAL
PRIMVEC
-0.074470 6.235598 6.185018 
6.140528 -0.056192 6.166817 
4.052366 4.103641 0.003892 
PRIMCOORD
36 1
Li	      2.01987      8.20805      6.13406         0.080566     -0.055033     -0.117182
Li	      4.13610      6.11602     10.25312        -0.005107     -0.183290     -0.045857
Li	      6.13231      8.12313     10.25840         0.080633      0.056994      0.001757
Li	      8.13218      4.16670      8.27852        -0.020408      0.171138      0.034846
Li	      8.08546      6.14275     10.26668         0.055465      0.035314     -0.078057
Li	      1.96457      4.19725      6.17955        -0.017628      0.038654      0.000251
Li	      3.93997      6.26546      6.19535        -0.090838      0.097600     -0.027034
Li	      8.03966      8.17414      8.30302        -0.032170     -0.133910      0.088069
Li	      6.10171      6.24330      8.32567         0.161703      0.003008     -0.019744
Ti	      6.15483      4.08115      6.30047         0.102790      0.004491      0.036921
Mn	      2.01361      6.17632      8.20618         0.027175      0.014131      0.110438
Cr	      2.01994      2.08112      4.12176        -0.200761      0.089917     -0.028593
Co	      4.01141      8.25963      8.21520        -0.052920     -0.003954      0.192505
Co	      4.02271      4.10870      4.12380        -0.013259      0.145718      0.003221
Co	      4.06695      2.04818      6.17427        -0.106216     -0.097424      0.459020
Co	     10.01670      8.28897     10.34843         0.855941      0.048218      0.122503
Ni	      6.06484      6.18572     12.29460        -0.028601     -0.081310      0.075407
Ni	     10.10091      6.13094      8.23162         0.099012     -0.048417      0.184555
O	      2.09412      1.93320      2.11458         0.001991     -0.072055      0.028851
O	      4.14120      4.02633      2.14219         0.013492     -0.062137      0.107032
O	      4.01675      2.18131      4.08291         0.013022      0.012235     -0.579525
O	      5.98582      4.14302      4.10164        -0.069638      0.060302      0.058470
O	      6.01360      2.07486      6.16556         0.019318      0.134361     -0.177903
O	      8.07299      4.19313      6.13620        -0.403488     -0.708382     -0.245406
O	      2.04285      4.05037      4.11046        -0.159391     -0.006065      0.010587
O	      4.08107      6.08857      4.08919        -0.070879      0.209897      0.152979
O	      4.13274      3.99689      6.04148         0.253049      0.824802     -0.302088
O	      6.17033      6.06087      6.13242         0.008600     -0.049814     -0.044124
O	      6.09301      4.08181      8.15504        -0.052051      0.126580      0.121627
O	      8.14516      6.15688      8.05011        -0.248671      0.022640      0.490975
O	      1.93949      6.23429      6.37095         0.068293     -0.017866      0.092940
O	      3.98950      8.32261      6.26588        -0.032749     -0.039587     -0.588346
O	      3.89443      6.33440      8.25371        -0.009148      0.043970     -0.028829
O	      5.93394      8.38399      8.26048         0.058677     -0.016671      0.035536
O	      6.11309      6.10010     10.31453        -0.320124     -0.821216     -0.163904
O	      8.22692      8.17362     10.28791         0.034321      0.257162      0.038102
