# total energy = -216.71882933 eV
 
CRYSTAL
PRIMVEC
0.042031 6.290868 6.324088 
6.086764 0.049871 6.315172 
4.076487 4.206267 0.014943 
PRIMCOORD
36 1
Li	      6.09976      0.10293      6.28431        -0.011333     -0.004558     -0.092923
Li	      8.11404      8.37456     12.59632        -0.027276     -0.006148     -0.053244
Li	      2.05536      6.30929      8.39785        -0.021612     -0.021807      0.144689
Li	      6.18413      8.40667     10.54149        -0.022472      0.043804      0.026227
Li	      6.11156      6.29095      4.26116         0.030135     -0.156074      0.052961
Li	      6.13525      4.23809      6.34645        -0.044076      0.010860     -0.163494
Li	      4.07695      8.38970      4.25706        -0.052524      0.141718      0.041540
Li	      4.12612      6.33079      6.28981         0.071414     -0.067465     -0.070802
Li	      6.11318      6.32261      8.42875        -0.023299      0.049226      0.053118
Ti	      4.08773      8.31633      8.37110         0.173912     -0.151507     -0.196509
Mn	      8.15398      6.31717      6.32463        -0.288303      0.171957     -0.136653
Cr	      2.04015      4.22936      6.30031         0.172605      0.053058     -0.173231
Co	      8.24151     10.48912     10.60252        -0.324306      0.057121     -0.004435
Co	      8.06717      4.23141      8.42648         0.381085      0.097098     -0.024775
Co	      4.25619      4.22187      4.20139        -1.508298      0.035243      0.430547
Co	      8.09322      6.35558     10.57863        -0.068145      0.252273      0.004610
Co	      4.11371      4.30056      8.46087        -0.192109     -0.060499      0.033344
Cu	      6.11264      2.16326      8.41918         0.099579      0.038296      0.020187
O	      2.08709      2.17241      2.09237        -0.384442      0.154837     -0.047803
O	      3.93039      4.07169      2.20188        -0.119115      0.160162     -0.258047
O	      4.09999      2.14200      4.11673         0.205441      0.273687      0.014971
O	      6.04607      4.23461      4.22444         0.801790      0.035863     -0.024881
O	      5.98644      2.13069      6.48949         0.201201      0.020570     -0.010573
O	      8.12169      4.37629      6.29454         0.059625     -0.054662      0.045983
O	      2.15197      4.34549      4.28122         0.221276     -0.028737     -0.131088
O	      3.98742      6.23087      4.09596         0.143454     -0.305656     -0.036149
O	      4.05131      4.13216      6.36202         0.152218     -0.047456      0.072736
O	      6.22182      6.44506      6.29661        -0.004819      0.001002      0.087457
O	      6.20068      4.28468      8.44437        -0.079342     -0.496353      0.081890
O	      8.14124      6.29977      8.59448         0.105245     -0.107569     -0.006982
O	      2.09670      6.23919      6.14122        -0.045118     -0.037786      0.069538
O	      4.13607      8.37357      6.46558        -0.053862     -0.031892      0.179721
O	      4.07680      6.36380      8.51003         0.037487      0.421251      0.197737
O	      6.04854      8.47878      8.31638         0.070426     -0.100403      0.028354
O	      6.20138      6.33843     10.55900         0.124119     -0.065122     -0.034438
O	      8.14618      8.37471     10.47207         0.219440     -0.274333     -0.119583
