# total energy = -218.55935278 eV
 
CRYSTAL
PRIMVEC
-0.004295 6.371130 6.242941 
6.071750 0.015380 6.222263 
4.063518 4.248564 -0.004999 
PRIMCOORD
36 1
Li	     10.00966     10.55567     12.36521         0.007796      0.055594      0.000849
Li	      8.13081      8.61879     12.38551        -0.096388     -0.002916      0.124057
Li	      8.16688     10.56818     10.47171        -0.015147      0.158210     -0.026172
Li	      8.08085      4.30438      8.24058         0.038732     -0.037451      0.006970
Li	      8.10644      6.30973      6.21362        -0.009235      0.022066     -0.094765
Li	      2.01158      6.42055      4.24408         0.026567     -0.012035      0.050594
Li	      2.01337      4.25701      6.18332         0.117822     -0.044883     -0.009518
Li	      4.07505      6.44338      6.18557         0.008926     -0.058112     -0.036892
Li	      8.13443      8.46514      8.36279        -0.045206      0.006479     -0.089168
Ti	      2.10391      6.32750      8.12967         0.057594      0.312138     -0.332486
Mn	      6.11679      4.24839      6.24515        -0.209330      0.264839     -0.455648
Cr	      4.05281      8.52359      8.26368        -0.365895     -0.225849      0.670909
Co	      2.04135      2.18723      4.22286        -0.307161     -0.901883     -0.484713
Co	      6.17224      8.41536     10.47239        -0.255586     -0.076816      0.201831
Co	     10.02896      6.40954      8.26102         0.030107     -0.195952     -0.097893
Co	      4.03341      4.27263      4.20655         0.045567     -0.087282      0.075699
Co	      4.00930      8.53167      4.26114        -0.770043      0.136881      0.383674
Co	      6.22234      6.34155      8.32497         0.179471      0.102483     -0.126538
O	      2.00634      1.96068      2.17886         0.474523      0.121440      0.571612
O	      4.13202      4.19431      2.24707         0.032593     -0.067012     -0.156765
O	      4.05352      2.17015      4.05582        -0.438152      0.027272      0.058002
O	      6.00354      4.29154      4.23440         0.036041      0.822078      0.130649
O	      6.05372      2.30033      6.27078         0.261194      0.120117     -0.656765
O	      7.97018      4.26787      6.23962         0.012622     -0.097059     -0.038449
O	      2.04267      4.11725      4.17156        -0.324193     -0.469843     -0.039107
O	      4.09344      6.45633      4.02948         0.973418      0.246136      0.693355
O	      4.11371      4.27457      6.04337         0.092534      0.013525      0.077599
O	      6.07106      6.22780      6.19552         0.074610     -0.042215     -0.327632
O	      6.03375      4.29750      8.15418         0.022157      0.256362      0.275274
O	      8.07274      6.40018      8.29053        -0.666314     -0.008340      0.067150
O	      1.99368      6.35419      6.36187         0.014664      0.029605      0.525204
O	      4.06207      8.53068      6.31539        -0.012262     -0.025367     -0.927719
O	      4.02431      6.47851      8.30540        -0.033826      0.015522     -0.002521
O	      6.05950      8.59055      8.39471         0.225528     -0.039761      0.048803
O	      6.07169      6.33299     10.31200         0.191400     -0.488523     -0.084734
O	      8.14357      8.48725     10.38690         0.624872      0.170551      0.025251
