# total energy = -202.30825576 eV
 
CRYSTAL
PRIMVEC
-0.011586 6.149328 6.178672 
6.248273 0.009591 6.157621 
4.182302 4.102504 -0.010530 
PRIMCOORD
36 1
Li	      8.22426      4.04389      4.14608        -0.037123      0.018550     -0.073384
Li	      6.32445      2.14625      4.11091        -0.043285      0.015970     -0.021167
Li	      2.11678      4.08585      2.11242        -0.027864     -0.024002      0.056481
Li	      6.23791      6.16007      4.13165         0.001045      0.006536     -0.011898
Li	      4.17904      4.14152      4.18822        -0.019944     -0.010873      0.013339
Li	      6.18676      4.11724      6.04790        -0.040797      0.029075     -0.036932
Li	      4.18629      8.16999      4.14351         0.028356     -0.012226     -0.016955
Li	      2.16365      4.06931      6.09455         0.074989     -0.037310     -0.008871
Li	      4.14559      4.09762      8.19800         0.036012      0.003857     -0.028720
Ti	      6.25888      5.98893      8.21984        -0.040435     -0.532025     -0.175896
Mn	      2.09291      6.12710      4.13492         0.213511     -0.104481     -0.075302
Cr	      4.21286      2.07656      2.13421        -0.048882     -0.152685      0.305660
Cu	      6.22113      6.14947     12.30901        -0.148639      0.064038     -0.133322
Ni	      8.30900      2.11974      6.13147        -0.046766      0.103082     -0.011059
Ni	      6.27997     10.21823      8.25778         0.137729     -0.011591     -0.014050
Ni	      0.00948      2.08583      2.08965        -0.012791      0.092507      0.121966
Ni	      4.17270      2.10025      6.04171        -0.062745     -0.024643     -0.003166
Ni	      4.22896      6.07815      6.11177         0.122462     -0.081938     -0.005303
O	      2.15603      1.98722      1.95974         0.103878      0.119609      0.058273
O	      4.23295      4.06832      1.95201        -0.142412     -0.022483      0.004913
O	      4.09680      2.08896      3.95801         0.057877     -0.017850     -0.239631
O	      6.24965      4.13798      3.99811        -0.032038      0.006647      0.240372
O	      6.21955      1.99663      6.21746        -0.009579     -0.082645     -0.132048
O	      8.44211      4.16347      6.11902         0.149156     -0.000318      0.024243
O	      2.06537      4.26296      4.12675         0.008784      0.098487      0.019791
O	      4.02524      6.16999      4.10794        -0.137515     -0.005805     -0.029545
O	      4.18142      4.07014      6.18861        -0.003032      0.104073      0.012260
O	      6.31474      6.15747      6.27779        -0.062022     -0.022838      0.179676
O	      6.25090      4.15290      8.22199        -0.003095      0.694595      0.020727
O	      8.25605      6.20442      8.33159        -0.120882     -0.048235      0.038732
O	      2.08108      6.19666      6.12170        -0.175521     -0.092852     -0.051126
O	      4.07793      8.21767      6.32952         0.140129      0.054552     -0.026729
O	      4.25169      6.20688      8.20524         0.170872      0.074923      0.103816
O	      6.07075      8.18365      8.20879        -0.030386     -0.174440      0.010338
O	      6.36886      6.15837     10.23179        -0.004209      0.028567      0.000302
O	      8.32221      8.09573     10.37305         0.005163     -0.055827     -0.115783
