# total energy = -201.86518846 eV
 
CRYSTAL
PRIMVEC
-0.000092 6.424328 6.262126 
5.999582 0.005768 6.256318 
4.000314 4.279954 0.002741 
PRIMCOORD
36 1
Li	      4.02224      4.20281      0.10800         0.073923     -0.132498      0.010223
Li	      2.02533      6.35054      8.21561         0.009334     -0.051707     -0.145842
Li	      6.00327      8.55840     10.37928         0.063341     -0.095323     -0.023188
Li	      5.99538      2.25190      8.31962         0.028254     -0.038187      0.033161
Li	      7.93334      4.25633      8.36321         0.031198      0.048709      0.005462
Li	      0.02398      4.26622      4.14228         0.018996      0.059109      0.136703
Li	      5.95892      8.56394      6.29540        -0.123242      0.148593      0.040059
Li	      4.01543      6.52756      6.29570        -0.034123      0.133496      0.066190
Li	      5.99227      6.43649      8.31152         0.015803      0.043339      0.071893
Ti	      4.00061      4.37064      4.03753        -0.352903      0.195449     -0.543961
Mn	      8.01632     10.65518     10.41438         0.232651     -0.171620     -0.130202
Cr	      7.86064      6.48126     10.49795        -0.169192      0.065788     -0.028699
Cu	      1.98587      2.18126      4.12079        -0.188525      0.160531     -0.336346
Cu	      8.04454      6.38846      6.28458         0.074794     -0.258822      0.217755
Cu	      5.99738      4.26479      6.28306        -0.014535      0.069706      0.270200
Ni	      1.98299      2.09177      0.06653         0.047578     -0.211442     -0.116676
Ni	      4.03738      8.57620      8.31029         0.262561     -0.038194     -0.311538
Ni	      7.96755      8.56994      8.35893        -0.256242      0.059705      0.133343
O	      3.92344      8.54780      6.45066         0.462383      0.019588     -0.256961
O	      5.98198      8.54327      8.27441        -0.014174     -0.067228      0.117023
O	      2.11212      2.17312      2.09272        -0.332093      0.047233      0.583683
O	      4.01983      4.29043      2.19140         0.054748      0.053085      0.549238
O	      3.94311      2.23224      3.94738        -0.046097     -0.009959      0.455592
O	      5.99896      4.17675      4.24131        -0.018621     -0.087414      0.217821
O	      6.00167      2.23458      6.32507        -0.526876      0.331832     -0.113229
O	      7.99190      4.38144      6.13045         0.008338      0.089907     -0.037854
O	      2.06543      4.47800      4.19019         0.211300      0.007695     -0.004725
O	      4.01807      6.30747      4.20969         0.100365     -0.244648     -0.010361
O	      4.04198      4.07726      6.19052        -0.097201     -0.003443     -0.143445
O	      6.10174      6.31302      6.09303         0.142340     -0.158350     -0.159006
O	      5.91030      4.33232      8.24479         0.358140      0.014166     -0.338810
O	      8.00782      6.61455      8.62448         0.034451     -0.253546     -0.059804
O	      2.01813      6.48834      6.10359         0.017457     -0.120895     -0.030456
O	      3.99107      6.30105      8.50009        -0.037326      0.243962      0.148110
O	      6.00255      6.38820     10.48956        -0.027601      0.069320      0.013816
O	      8.00299      8.47166     10.54083        -0.009204      0.082062     -0.279167
