# total energy = -202.65880489 eV
 
CRYSTAL
PRIMVEC
0.018814 6.178417 6.288210 
6.284547 0.042077 6.264464 
4.206700 4.120310 0.011365 
PRIMCOORD
36 1
Li	      6.32877      6.19374     12.42675         0.070959     -0.008658     -0.136135
Li	      6.36751     10.27346      8.44862         0.081064      0.020241      0.093600
Li	      8.44592     10.22218     10.44119         0.041281     -0.013513     -0.080404
Li	      6.39628      8.26401     10.47454         0.010345      0.007503     -0.030002
Li	      6.28749      4.13623      6.26042        -0.077209      0.063390     -0.022729
Li	      6.22734      4.25215     10.43878        -0.083756      0.044470     -0.050771
Li	      4.19672      6.18637      6.30763         0.018116     -0.067139      0.020331
Li	      4.21205      4.24881      8.45489         0.022250      0.057973      0.029946
Li	      6.28562      6.15726      8.45708        -0.020024     -0.022137      0.036279
Ti	      8.40967      6.13101      6.25674        -0.249613      0.166185      0.056170
Mn	      0.02288      2.06930      2.10603        -0.019537      0.024541     -0.132875
Cr	      4.31131      8.12352      8.34435        -0.187240     -0.307064      0.409238
Cu	      8.36819      4.17017      8.39074        -0.088397      0.131744     -0.122294
Cu	      4.24766      4.13618      4.20800         0.311544     -0.110942      0.128819
Cu	      8.28719      6.28965     10.47581         0.070072     -0.096868     -0.042154
Cu	      2.10109      4.16949      6.25924        -0.285444      0.128441      0.355567
Ni	      8.42135      8.31311     12.49248         0.011726     -0.235778      0.092217
Ni	      6.30370      6.14979      4.20977         0.020663      0.004048      0.109963
O	      2.11473      6.13110      6.17956         0.012858      0.316168      0.040926
O	      6.37276      6.23683     10.43948        -0.105846     -0.057137      0.082340
O	      8.39434      8.20660     10.51013         0.078643      0.195194     -0.007872
O	      2.27208      2.15483      2.07600         0.070614     -0.120860     -0.191600
O	      4.11901      4.13461      2.18742        -0.015398     -0.060370     -0.082276
O	      4.20194      2.10443      4.22700         0.061150     -0.067239      0.008086
O	      6.20341      4.18178      4.18532        -0.016374     -0.135655      0.058161
O	      6.20525      2.09831      6.40768        -0.140637     -0.044638      0.121812
O	      8.37265      4.23194      6.27929         0.003051      0.083541      0.046569
O	      2.17548      4.14001      4.18135        -0.104117      0.097908      0.180907
O	      4.22877      6.11653      4.06771        -0.189557      0.139995     -0.008557
O	      4.12272      4.05844      6.24028         0.207106     -0.066880     -0.055733
O	      6.40929      6.31608      6.25711         0.314943     -0.345863     -0.025550
O	      6.39287      4.02369      8.38634         0.014885      0.025329     -0.012931
O	      8.35487      6.17245      8.29655        -0.018137      0.013701     -0.241270
O	      4.23773      8.22318      6.42960         0.025954      0.094135     -0.153543
O	      4.19114      6.33608      8.41257         0.008144      0.194469     -0.048262
O	      6.11349      8.34040      8.32412         0.145915     -0.048236     -0.425973
