# total energy = -203.47224191 eV
 
CRYSTAL
PRIMVEC
-0.036133 6.195675 6.264024 
6.246365 -0.030344 6.258240 
4.114272 4.076813 0.029789 
PRIMCOORD
36 1
Li	      2.05165      8.22799      6.30354        -0.043711      0.048862     -0.011509
Li	      4.09678      2.03122      2.08238         0.023707     -0.069235      0.050577
Li	      2.09690      2.09528      4.12664         0.078964     -0.036910     -0.072084
Li	      4.06066      4.09882      4.18290         0.039511     -0.085099     -0.016790
Li	      6.20268      4.08942      6.34284        -0.005839     -0.007625      0.012053
Li	      6.26786      4.11802     10.38533         0.056654      0.022616     -0.056790
Li	      8.28118      6.09171     10.39962        -0.021001     -0.017451     -0.078428
Li	      4.17866      4.11186      8.35080         0.017826      0.034964      0.071308
Li	      6.23398      6.06195      8.38205        -0.054453      0.005542      0.024887
Ti	      4.18581      6.17110      6.12639         0.159029     -0.024665      0.054152
Mn	      2.00291      4.07520      2.12968        -0.147636     -0.092629     -0.242841
Cr	      6.24031      8.22958     10.43188        -0.033091      0.161378      0.339021
Cu	      4.07776     10.23242      6.27102        -0.076399      0.124131     -0.026799
Cu	      2.09331      0.02027      2.11016        -0.019188      0.074308      0.102858
Cu	      4.14118      6.17833     10.43456        -0.068654     -0.099773     -0.213048
Cu	      8.23998      6.14318      6.30241        -0.098610      0.176867      0.057404
Cu	      2.07560      4.10956      6.21935         0.018688     -0.057322      0.030075
Ni	      4.09906      6.15628      2.16015        -0.060116      0.053949     -0.024837
O	      2.17106      6.10228      6.39507        -0.077885      0.014274     -0.157401
O	      6.10940      8.29730      8.62228        -0.041145     -0.290059     -0.465622
O	      6.14456      6.24068     10.53366         0.103740     -0.125948     -0.009218
O	      8.08885      8.25852     10.52855         0.046451     -0.097064      0.063582
O	      2.01932      2.10514      2.06502         0.137276      0.076868     -0.067551
O	      4.07086      4.11041      1.97224        -0.138149     -0.127812     -0.000522
O	      4.27626      1.97537      4.28967        -0.023970      0.120614      0.018669
O	      6.28026      4.02963      4.11448        -0.120576      0.036294      0.121160
O	      6.11501      2.06713      6.15841         0.226297     -0.198308      0.138195
O	      8.21148      4.13932      6.31303         0.240040     -0.101479      0.073487
O	      2.08521      4.11239      3.94925         0.028362      0.043480      0.294346
O	      4.08568      6.13283      4.30948         0.037989      0.005300      0.195513
O	      4.06053      4.12345      6.29718        -0.003552      0.238277     -0.024701
O	      6.13914      6.19733      6.29659        -0.249297     -0.050339     -0.045475
O	      6.35933      4.05462      8.36800        -0.053339      0.136902      0.031073
O	      8.30143      6.00398      8.29194        -0.131709     -0.001704      0.084728
O	      4.19219      8.10488      6.26567         0.016865      0.105328     -0.053286
O	      4.05028      6.17192      8.38579         0.236921      0.003467     -0.196183
