# total energy = -203.14633772 eV
 
CRYSTAL
PRIMVEC
0.061056 6.239244 6.149453 
6.283603 0.047108 6.163948 
4.226246 4.206407 -0.006257 
PRIMCOORD
36 1
Li	      4.22616      4.20510      0.01366        -0.001324     -0.044912     -0.049814
Li	      4.35428      8.33370      8.19330         0.055277     -0.061529     -0.035225
Li	     10.40187      6.30338      8.22159        -0.044271      0.067200      0.064861
Li	      8.41450      6.36965      6.22188         0.009928     -0.056547      0.069308
Li	      8.43824      6.28113     10.17590        -0.027496     -0.012313     -0.077692
Li	      6.40440      8.38232      6.23125        -0.045289      0.047457      0.065775
Li	      4.29394      6.21247      6.20133        -0.009624      0.065349      0.011765
Li	      4.16836      4.20556      8.12872         0.003448     -0.081366      0.076878
Li	      6.40243      6.29914      8.16636         0.097457      0.033332      0.056164
Ti	      2.19782      8.25516      6.19739         0.273177     -0.336205      0.075902
Mn	      2.12171      2.15718      4.15096        -0.033213      0.010811     -0.075453
Cr	      6.31516      4.23456     10.22601        -0.086929      0.090888      0.004705
Cu	      6.38535     10.38047      8.17040         0.034438      0.303730     -0.365801
Cu	      4.26252      6.29990     10.21406         0.045020     -0.053962      0.075198
Cu	      8.46955      4.29762      8.16590         0.082295     -0.132833      0.068343
Cu	      4.24156      4.19096      4.13675        -0.107063     -0.064818     -0.042159
Cu	      6.26878      4.21475      6.19336         0.060857      0.140196      0.085696
Cu	      6.37104      8.31232     10.21628         0.008367     -0.322876     -0.335439
O	      8.44858      6.14055      8.21036         0.001672      0.455945     -0.025459
O	      4.14398      6.25781      8.26100        -0.177210      0.085055     -0.049075
O	      6.36037      8.41196      8.31945        -0.042256     -0.582311      0.107598
O	      6.23022      6.13657     10.28060         0.187976     -0.087768      0.109936
O	      2.12814      2.27362      2.02967         0.021548      0.068368     -0.031488
O	      4.27608      4.22222      2.20281         0.181090     -0.035848      0.059091
O	      4.07919      2.08264      4.11280         0.067045      0.381389      0.025158
O	      6.40707      4.40971      3.95557        -0.040681      0.209841      0.121228
O	      6.42716      2.19673      5.99430        -0.119395      0.118703      0.070744
O	      8.31627      4.15431      6.12038        -0.071920      0.116865     -0.223086
O	      2.03223      4.07737      4.16965        -0.005304      0.078087      0.045278
O	      4.42047      6.43946      4.10782        -0.084655     -0.124672      0.034151
O	      4.32119      4.18834      6.02570         0.076387     -0.004858     -0.036357
O	      6.32658      6.23424      6.00209         0.047528     -0.206923     -0.025064
O	      6.37191      4.21143      8.38994        -0.137143     -0.058913     -0.197783
O	      2.11544      6.36576      6.22711        -0.058850      0.175302     -0.014899
O	      4.12266      8.37678      6.02377        -0.174758      0.018133      0.118832
O	      8.52991      8.38361     10.33025         0.013872     -0.197996      0.238184
