# total energy = -102.26846024 eV
 
CRYSTAL
PRIMVEC
-0.000119 2.167649 2.129859 
3.894555 0.000143 -0.000109 
-0.000532 9.359949 -9.203216 
PRIMCOORD
16 1
Li	      3.89244      0.28152     -0.13126        -0.000279     -0.021514      0.001607
Li	      1.94476      2.51368     -0.23702        -0.000937     -0.030694      0.011062
Li	      1.94482      4.27852     -2.06411         0.000088      0.007872     -0.016163
Li	      3.89167      7.10451     -6.94326        -0.000032      0.030048     -0.011536
Ti	      3.89259      6.86279     -2.51044        -0.000731     -0.081993      0.217190
Ti	      1.94364      9.36742     -6.84858        -0.001107      0.333339     -0.090065
Ni	      3.89213      2.06952     -1.96395         0.000420      0.095444     -0.094956
Ni	      1.94454      7.01875     -4.90584         0.002514      0.042911     -0.046956
O	      3.89190      6.71777     -4.70860        -0.001070     -0.078243      0.044290
O	      1.94459      9.11742     -4.86818        -0.000669      0.111515     -0.158864
O	      3.89238      4.90159     -2.76799        -0.001770      0.105177     -0.188527
O	      1.94467      7.02067     -2.79151        -0.000170     -0.084925      0.134172
O	      3.89203      2.25249      0.01881         0.000501     -0.135474      0.109940
O	      1.94486      2.39212     -2.30722         0.000894      0.043299     -0.041644
O	      3.89194      9.11610     -6.82128         0.002229     -0.002362      0.024934
O	      1.94454      9.03694     -8.81280         0.000119     -0.334401      0.105518
