# total energy = -201.22797065 eV
 
CRYSTAL
PRIMVEC
-0.020986 6.235567 6.195244 
6.211864 -0.001090 6.175362 
4.142722 4.145351 -0.002200 
PRIMCOORD
36 1
Li	      6.22148      4.15418      2.20303        -0.008443     -0.016792      0.010436
Li	      4.15825      2.02215      2.19444         0.038794     -0.062230      0.051426
Li	      4.05820      0.07124      4.00039        -0.008192      0.143977     -0.096865
Li	      6.25445      6.12722      4.09909         0.153430     -0.117087     -0.001694
Li	      4.23069      4.10589      4.10165         0.082080     -0.195036     -0.002079
Li	      4.11652      2.08455      6.08610        -0.031516      0.053408     -0.108045
Li	      6.11115      4.25080      6.10968        -0.041490      0.019295     -0.010356
Li	      6.19683      4.09820     10.20968        -0.042350      0.075177     -0.017396
Li	      4.17662      4.19251      8.28781         0.019719      0.055774     -0.144152
Ti	      2.11770      2.15815      0.04611        -0.110498      0.382868      0.604093
Mn	      4.15635      4.15927      0.03521        -0.117965      0.130434      0.253287
Cr	      2.20588      4.09545      6.17436         0.435790     -0.212899      0.710987
Ni	      8.25146      6.23742     10.30078         0.512367     -0.220010     -0.057257
Ni	      6.16806      2.12275      4.09718        -0.289427      0.166768     -0.135152
Ni	     10.29529      6.26881      8.30631        -0.008514      0.069469     -0.133955
Ni	      2.04384      4.15215      2.14851         0.049485     -0.133953      0.008445
Ni	      4.19203      6.21097      6.16436        -0.006074     -0.016335      0.130811
Ni	      6.18904      6.18054      8.20112        -0.133638     -0.030224     -0.075748
O	      2.02422      2.09529      1.97104         0.103331     -0.158935     -0.241367
O	      4.08168      4.20723      1.92762         0.151642     -0.132837     -0.125774
O	      4.30818      2.08432      4.11549        -0.202363      0.026609     -0.000620
O	      6.21450      3.99263      4.12472         0.024866      0.258920     -0.014799
O	      6.30608      1.94788      6.23876         0.176304     -0.109608     -0.072088
O	      8.42816      4.06080      6.17440         0.085472     -0.324482     -0.082710
O	      1.99025      4.22067      4.29617        -0.146901      0.414805     -0.421488
O	      3.99264      6.24432      4.15601        -0.523822      0.113904     -0.159465
O	      4.00553      4.18739      6.18076        -0.346382     -0.197921     -0.118771
O	      6.20974      6.32081      6.11954         0.180223      0.102532     -0.184517
O	      6.24735      4.19657      8.22580        -0.181848      0.036053      0.057697
O	      8.18357      6.17314      8.29843         0.026480      0.233571      0.325345
O	      1.98976      6.22496      6.24512        -0.113721      0.050184     -0.219017
O	      4.07231      8.41107      6.15807        -0.072913      0.092363     -0.020640
O	      4.27471      6.20386      8.13431        -0.085248     -0.025148      0.312408
O	      6.16239      8.15608      8.05585         0.053735      0.140935     -0.047974
O	      6.24513      6.37398     10.41345         0.069939     -0.287316      0.088135
O	      8.11634      8.26429     10.44532         0.307648     -0.326233     -0.061145
