# total energy = -231.47284976 eV
 
CRYSTAL
PRIMVEC
-0.014010 6.283019 6.352123 
6.327921 -0.005893 6.343989 
4.214737 4.179446 -0.000044 
PRIMCOORD
36 1
Li	      4.20756      6.26808     10.54437        -0.023141      0.023533      0.032079
Li	      4.15706      6.32062      2.37338        -0.043950      0.011187     -0.120791
Li	      2.03930      4.25160      2.30978        -0.040492      0.079181      0.031145
Li	      6.06708      6.34045      4.21898         0.047383      0.010399     -0.012491
Li	      4.17207      4.40715      4.16605         0.002158     -0.070804     -0.079400
Li	      4.29981      8.14488      4.11390         0.031950      0.045194     -0.074772
Li	      2.31824      6.19791      4.11845        -0.006607     -0.016440     -0.078298
Li	      4.23217      6.25401      6.12085         0.002635     -0.000673     -0.048987
Li	      6.38385      6.19357      8.49910         0.107322      0.005140      0.062786
Ti	      6.31665      6.26803     12.66875         0.078270     -0.006682     -0.188733
Ti	      6.31095      8.39275     10.52426        -0.162789      0.153560      0.000252
Cr	      2.13836      8.32712      6.30387        -0.006523     -0.035208     -0.021438
Cr	      4.24492      4.19093      8.49438         0.060383     -0.076740     -0.040188
Fe	      4.14344      2.02934      2.19930         0.045821     -0.043219      0.100289
Fe	      8.39271      6.23328      6.41697         0.185982      0.071108     -0.194120
Fe	      6.31858      4.36215      6.39754        -0.141418     -0.081393      0.025702
Fe	      2.16704      4.13120      6.10622         0.010219      0.060138     -0.062007
Cu	      6.32038      4.23424      2.19366        -0.076341     -0.051457      0.091396
O	      2.20202      2.04942      1.95446        -0.006184      0.128885     -0.016705
O	      4.33426      4.06452      1.99828        -0.201672     -0.018426     -0.127297
O	      4.36239      2.07232      4.20576         0.192737     -0.023990     -0.019830
O	      6.32243      4.01754      4.46859         0.013329     -0.152638      0.133837
O	      6.43240      2.01281      6.28095         0.155662     -0.091002     -0.016927
O	      8.50070      4.08121      6.37704         0.039719     -0.203185      0.015653
O	      2.11232      4.17531      4.28221        -0.009804     -0.020341     -0.073673
O	      4.21078      6.28028      4.23238        -0.007942     -0.007244     -0.043659
O	      4.17882      4.20060      6.48229         0.037433      0.193644      0.075425
O	      6.31556      6.31783      6.33570        -0.165645      0.027068      0.009382
O	      6.22189      4.22799      8.33793        -0.053408      0.008696      0.093029
O	      8.42806      6.37654      8.38622        -0.008723      0.103569      0.272487
O	      1.95321      6.27031      6.28070        -0.141998     -0.014977     -0.157631
O	      4.20032      8.45247      6.40297        -0.008760      0.059376      0.009355
O	      4.07161      6.30134      8.51267         0.238823     -0.051199      0.051176
O	      6.32301      8.36310      8.55616        -0.027685     -0.097792      0.093884
O	      6.25672      6.41251     10.75545        -0.016686      0.085177      0.235757
O	      8.29650      8.37942     10.57379        -0.100059     -0.002446      0.043315
