# total energy = -233.65615189 eV
 
CRYSTAL
PRIMVEC
0.015317 6.305071 6.286615 
6.335611 0.026387 6.275509 
4.236664 4.208945 0.004738 
PRIMCOORD
36 1
Li	      6.31447      4.22646      2.18111        -0.026373      0.022846      0.035446
Li	      6.31512      2.20216      4.16438        -0.037905      0.066702      0.009123
Li	      4.21982      6.27059      2.28899        -0.001945     -0.027309     -0.101060
Li	      2.12521      4.26856      2.22373         0.022875      0.004172      0.039443
Li	      6.17634      6.32245      4.15654         0.043405     -0.017159     -0.076575
Li	      4.21716      4.41618      4.17260         0.015014     -0.057210     -0.013219
Li	      8.44983      6.33656      6.30352         0.013584     -0.015729      0.024062
Li	      2.33247      6.19910      4.12879         0.004014     -0.060133      0.000552
Li	      4.25701      6.27926      6.09243         0.017568     -0.016734      0.011491
Ti	      6.39366      0.15676      6.26427         0.094348      0.209273      0.089848
Ti	      4.12375      2.17054      2.17691        -0.465057      0.121400      0.292576
Cr	      8.43740      4.25636      4.19822        -0.097464      0.065057      0.066517
Cr	      6.37526      6.32111      8.40345         0.074570     -0.030739      0.048862
Fe	      2.12009      8.33763      6.24856         0.047959      0.005935     -0.026577
Fe	      6.30774      4.25012      6.22599         0.018876     -0.062505      0.075950
Fe	      2.19009      4.15629      6.13494         0.051452     -0.014750      0.088852
Fe	      8.45860      8.33048      8.39859         0.023517      0.127109      0.085729
Ni	      4.29856      8.29141      4.18512         0.010111      0.073421     -0.026327
O	      2.27823      2.06239      2.00475         0.425313      0.005018      0.169809
O	      4.23088      4.10337      1.96728         0.015014     -0.168227     -0.150613
O	      4.26684      2.06853      4.03394         0.004243     -0.017690     -0.321757
O	      6.43510      4.21251      4.31365         0.056779      0.035048     -0.108455
O	      6.30876      2.06593      6.30674        -0.056421     -0.206417     -0.032737
O	      8.50066      4.23266      6.20958         0.037996      0.095092     -0.041014
O	      2.11044      4.17060      4.26199         0.120095      0.014305     -0.126788
O	      4.24525      6.33547      4.18137        -0.011949     -0.145244      0.010250
O	      4.24226      4.23072      6.37526        -0.015049     -0.026239     -0.009199
O	      6.36376      6.30372      6.41121         0.011806      0.026760      0.052563
O	      6.27760      4.29726      8.30086         0.009661      0.057608     -0.041631
O	      8.35633      6.40620      8.42740        -0.074077     -0.096760     -0.010905
O	      1.97020      6.22869      6.26709        -0.228604     -0.094988     -0.039058
O	      4.32636      8.50354      6.35031         0.060494      0.025667      0.116055
O	      4.31408      6.37450      8.45817         0.030222     -0.031455      0.003317
O	      6.36586      8.35657      8.31210        -0.040164     -0.005962     -0.008141
O	      6.25628      6.29657     10.52737        -0.043087      0.099408      0.022242
O	      8.50499      8.54545     10.43390        -0.110820      0.040430     -0.108633
