# total energy = -238.34235768 eV
 
CRYSTAL
PRIMVEC
0.002798 6.346594 6.255453 
6.357679 -0.001024 6.259303 
4.236991 4.232180 0.000676 
PRIMCOORD
36 1
Li	     10.57113     10.56075     12.49725        -0.048697     -0.032208     -0.016862
Li	      8.48968      8.49118     12.49297        -0.007907      0.078416     -0.030762
Li	      6.39614     10.57014      8.38394         0.060749     -0.004601      0.068295
Li	      4.24192      6.33863     10.39758        -0.007606      0.038665     -0.021737
Li	      6.38751      6.27955      4.17905         0.049792     -0.103148     -0.035718
Li	      4.25002      2.08465      6.22872         0.058292     -0.040177     -0.031419
Li	     10.54843      8.50693     10.44202        -0.040130      0.034061     -0.016879
Li	      4.24704      4.31208      8.36384         0.040732      0.116475      0.039015
Li	      6.31402      6.33359      8.36078        -0.034306     -0.024304      0.043563
Ti	      8.44303      4.19089      8.28886        -0.123438     -0.053470     -0.217971
Ti	      8.38026      6.43586     10.41033        -0.251389      0.262791     -0.110620
Cr	      6.37254      2.13146      4.18078        -0.026450      0.035643     -0.000426
Cr	      6.36718      4.26251      6.24515        -0.016328     -0.001156      0.007632
Fe	      4.25752      8.39964      8.35621        -0.110737      0.039382      0.084713
Fe	      0.06521      2.08830      2.02863        -0.065434     -0.005295      0.034470
Fe	      4.20910      4.20740      4.18323         0.182390     -0.072884     -0.121595
Fe	      6.40521      8.40348      6.27844        -0.052561     -0.028912      0.118913
Fe	      4.25035      6.37493      6.30096         0.010701     -0.058847     -0.011866
O	      2.19707      2.23199      2.13629         0.092810      0.177003     -0.071190
O	      4.10151      4.17421      2.02331        -0.095883     -0.074460     -0.096547
O	      4.35570      2.14756      4.10711         0.015742     -0.105031      0.023436
O	      6.36852      4.14246      4.25473         0.088976      0.013944      0.006799
O	      6.35301      2.24270      6.21977         0.066115      0.012791     -0.064258
O	      8.38282      4.26486      6.37998        -0.014516     -0.048659      0.230360
O	      2.05335      4.31435      4.16036        -0.047154      0.039784      0.012731
O	      4.11260      6.30350      4.17965        -0.089568      0.120050      0.048591
O	      4.26116      4.30074      6.32389        -0.057036     -0.003091      0.047577
O	      6.30413      6.36454      6.20708         0.016714     -0.038959      0.014426
O	      6.47027      4.24925      8.28051         0.148263      0.046466     -0.013789
O	      8.49686      6.20934      8.47175        -0.093680     -0.106111      0.202252
O	      2.20783      6.22231      6.14052        -0.072991      0.058472     -0.042939
O	      4.34581      8.38749      6.30657        -0.016747      0.057392     -0.088698
O	      4.20614      6.42467      8.27632         0.045984     -0.026677      0.003309
O	      6.29512      8.47704      8.33415         0.083979     -0.016887     -0.020243
O	      6.46588      6.43403     10.46638         0.297466      0.013515     -0.007244
O	      8.41981      8.34369     10.42052         0.013852     -0.299973      0.034679
