# total energy = -226.01578853 eV
 
CRYSTAL
PRIMVEC
0.044404 6.253836 6.183649 
6.230691 0.015528 6.212653 
4.157605 4.192381 0.006596 
PRIMCOORD
36 1
Li	      4.13285      4.18327      0.03303         0.016874     -0.008422      0.049456
Li	      6.18463      4.24517      2.14134        -0.010366      0.027604     -0.008202
Li	      4.07919      2.14652      2.18564        -0.019109      0.003167     -0.012088
Li	      4.19162      0.13199      4.13504        -0.037255      0.013344     -0.016214
Li	      2.17251      4.12969      2.05416        -0.022119     -0.045751     -0.035699
Li	      2.10859      2.10250      4.03734         0.053034     -0.018584     -0.022449
Li	      0.09426      4.17016      4.07336         0.012671      0.001608     -0.020494
Li	      4.16504      6.28238      6.14690        -0.004622      0.019934      0.061437
Li	      6.27290      6.29586      8.33058         0.012709      0.019482     -0.042013
Ti	      6.07320      8.34901      6.18413        -0.282319     -0.086539      0.003296
Ti	      4.16719      4.35841      8.32871         0.092453      0.665765     -0.037588
Mn	      6.25485      4.24768      6.17201         0.011295     -0.031671      0.077781
Cr	      2.16837      8.30887      6.21069         0.023232     -0.000720      0.028317
Cr	      4.17345      6.19069      2.08440         0.148484      0.107140     -0.162804
Co	      6.28637      8.32720     10.31148        -0.085935      0.236705      0.130969
Cu	      8.32217      6.24651     10.30578         0.008681      0.000869      0.065463
Ni	      8.32760      6.22091      6.19128         0.028463     -0.079431      0.063392
Ni	      4.17565      4.15833      4.09067        -0.064632     -0.120295     -0.011379
O	      2.00879      2.07198      1.98342         0.002954     -0.003645      0.014765
O	      4.15252      4.26472      2.08833        -0.047427     -0.130455     -0.128493
O	      4.33283      2.11578      4.19763         0.115884     -0.204471     -0.172963
O	      6.20867      4.06366      4.25355         0.147060     -0.046967      0.078550
O	      6.31334      2.03885      6.13503         0.058140     -0.025579     -0.040062
O	      8.19689      4.10757      6.19203         0.027799     -0.028517     -0.011060
O	      2.09822      4.17933      4.27742        -0.163945     -0.190409      0.087318
O	      4.05552      6.22913      4.05169         0.013461      0.196041      0.039452
O	      4.18948      4.15423      6.30481        -0.000090      0.103890     -0.022934
O	      6.28313      6.44252      6.18201        -0.105056      0.070198      0.024493
O	      6.15522      4.11842      8.16264        -0.134795      0.017982      0.067582
O	      8.39413      6.33847      8.23441        -0.098680      0.039304      0.258483
O	      2.13737      6.22876      6.17340         0.039463     -0.055084     -0.240693
O	      4.21759      8.35699      6.20497         0.192241     -0.006270     -0.035284
O	      4.21402      6.15578      8.29745         0.020050     -0.594824      0.003637
O	      6.35185      8.38240      8.26763         0.113157     -0.006963      0.027639
O	      6.41157      6.42163     10.30767        -0.136421      0.006993     -0.039999
O	      8.29000      8.35733     10.31590         0.074667      0.154572     -0.021613
