# total energy = -225.50077030 eV
 
CRYSTAL
PRIMVEC
0.011836 6.669043 6.088898 
6.046249 0.037411 6.063682 
4.041170 4.441566 0.014504 
PRIMCOORD
36 1
Li	      4.08102     10.99634      6.09039        -0.114699     -0.093645     -0.010996
Li	      2.04365      8.77197      6.07341        -0.005842     -0.024150     -0.014807
Li	      8.14205     11.08591     10.19024        -0.051277     -0.048402      0.018351
Li	      3.99286      4.37366      4.06213         0.062301     -0.016099     -0.003060
Li	      4.06125      2.20113      6.02168        -0.007458     -0.069466     -0.016272
Li	      2.00975      6.71001      4.23222        -0.018256      0.051687     -0.066555
Li	      2.12357      4.73216      6.04660        -0.008089     -0.038446      0.046081
Li	      3.92097      6.63709      6.09453         0.056424      0.028757      0.029900
Li	      3.99763      4.56187      8.08487        -0.012321      0.071697      0.014712
Ti	      5.98646      4.42614      5.92461        -0.092565     -0.011490     -0.081337
Ti	      6.03256      6.75337      8.08714        -0.093280     -0.054973      0.035963
Mn	      3.96705      8.85185      4.16298         0.028453      0.090507      0.217902
Cr	      6.00272      2.28482      8.06744        -0.144007     -0.174429      0.039120
Cr	      2.06710      2.32712      4.09313         0.063262     -0.212940      0.433699
Co	      4.06609      8.87274      8.03031         0.034325      0.106802     -0.273031
Cu	      2.02746      0.06387      2.00464        -0.004133     -0.016769      0.197682
Cu	      6.10334      8.82623     10.19505         0.051962      0.004997      0.253511
Cu	      8.10180      4.51949      8.07637         0.097454      0.085580      0.015286
O	      1.99057      6.67108      6.24896         0.028364      0.047412     -0.125051
O	      1.98359      2.46318      2.10542         0.110593     -0.181881     -0.107120
O	      4.08669      4.64692      2.03686         0.293987      0.182671     -0.021509
O	      4.09155      2.31718      3.94158        -0.250798      0.118349      0.040722
O	      6.08253      4.70931      4.01840        -0.005004      0.123772      0.048779
O	      6.04201      2.44991      6.04721         0.031016      0.190011      0.118940
O	      7.96835      4.50933      6.13135        -0.069119      0.030572     -0.145180
O	      1.92258      4.31673      4.05059        -0.127020      0.101194      0.091374
O	      4.08720      6.87162      4.01824         0.037602      0.008530     -0.066108
O	      4.15062      4.49323      6.06462         0.097205     -0.006949     -0.056015
O	      6.07145      6.50188      6.14145        -0.019542      0.059426     -0.012044
O	      6.00793      4.39280      8.11161        -0.261055     -0.012993     -0.020004
O	      8.04383      6.52409      8.11631         0.067897      0.211518     -0.010784
O	      4.06347      8.88265      6.04020         0.016648     -0.016702     -0.215485
O	      4.09212      6.73584      8.11273         0.096276     -0.280699     -0.020389
O	      6.12582      8.60652      8.21326        -0.084669     -0.103591     -0.201163
O	      6.05545      6.36283     10.02470         0.033864     -0.086200     -0.026845
O	      8.10915      8.85182     10.13864         0.161504     -0.063657     -0.108265
