# total energy = -224.20373854 eV
 
CRYSTAL
PRIMVEC
-0.001138 6.323646 6.222395 
6.310448 -0.059817 6.281228 
4.159407 4.207187 0.007794 
PRIMCOORD
36 1
Li	      4.28539     10.42088      6.27724         0.011626      0.006743     -0.046083
Li	      6.17572      4.21701      2.06612        -0.004803      0.004407      0.027862
Li	      4.23224      6.19836      2.31877         0.021977     -0.022278      0.008955
Li	      1.92033      2.21584      4.08609        -0.051916      0.034139      0.028010
Li	      4.08726      4.37210      4.08115        -0.037842      0.024618      0.079689
Li	      4.28936      8.23668      4.24202        -0.032941     -0.067696     -0.000252
Li	      2.16824      6.21481      4.23209         0.025734      0.023009     -0.020300
Li	      2.00378      4.39345      6.02736        -0.017969      0.120344     -0.016464
Li	      4.05840      6.39697      6.10426        -0.036634      0.034084      0.036214
Ti	      4.21976      2.03983      6.21195         0.013983      0.214083     -0.057175
Ti	      6.23195      4.18664      6.24468        -0.339298     -0.010809     -0.154677
Mn	      6.29804      6.28781      8.38887        -0.050562      0.062955      0.070824
Cr	      2.12397      8.30933      6.22686        -0.017101     -0.112623     -0.027921
Cr	      4.19511      2.15073      2.08256         0.066560     -0.051125      0.034733
Co	      6.28946      2.07532      4.19131         0.036218      0.012043     -0.079988
Ni	      4.22618      6.26178     10.39043         0.040028      0.011535     -0.028233
Ni	      2.13271      4.15994      2.20463        -0.071696      0.029980     -0.006947
Ni	      8.35476      8.40747      8.40467        -0.011587     -0.002853     -0.008355
O	      4.16863      6.30820      4.20141        -0.038028     -0.103881     -0.042834
O	      2.19071      2.09668      1.99297        -0.013783     -0.065703      0.023386
O	      4.14297      4.09412      2.09166         0.066703      0.031188     -0.019672
O	      4.30244      2.03017      4.22827         0.049893      0.070233      0.099366
O	      6.32914      4.04521      4.32575        -0.074152     -0.042788      0.188560
O	      6.26342      2.10623      6.17332        -0.057548      0.044565      0.015614
O	      8.29706      4.21013      6.28673        -0.033459     -0.007786      0.072214
O	      2.06532      4.19434      4.14100         0.056960      0.071032      0.046074
O	      4.29727      4.00195      6.29888         0.210317     -0.214566     -0.090913
O	      6.42089      6.15133      6.30259         0.119820     -0.163489     -0.027778
O	      6.28123      4.11654      8.19133         0.070201      0.001491     -0.124187
O	      8.27780      6.28266      8.19806         0.022721     -0.067623     -0.117579
O	      2.07086      6.43514      6.23424        -0.072832      0.054625      0.060490
O	      4.07459      8.43316      6.32921         0.040404      0.011270     -0.036292
O	      4.35940      6.32919      8.34050         0.051157      0.095435     -0.113624
O	      6.26981      8.47020      8.48040        -0.085650     -0.024947      0.071070
O	      6.26383      6.47114     10.31350         0.155768      0.083631      0.018089
O	      8.21723      8.43997     10.45483        -0.012267     -0.083243      0.138124
