# total energy = -228.41971569 eV
 
CRYSTAL
PRIMVEC
0.038964 6.363115 6.131505 
6.203230 0.037340 6.133038 
4.160792 4.268386 -0.000632 
PRIMCOORD
36 1
Li	      8.31017      8.53096     12.15691         0.002711     -0.015569      0.098889
Li	      2.11555      6.36826      8.16583        -0.031997      0.075389      0.001238
Li	      8.30757     10.54628     10.23889         0.016309      0.069476     -0.039407
Li	      6.41124      8.59821     10.19003         0.015845      0.043084     -0.017259
Li	      8.28915      4.29895      8.15689        -0.014642     -0.029400      0.025771
Li	      6.24455      4.27067      6.12955        -0.005547     -0.020042      0.055239
Li	      8.32663      6.51469     10.28049         0.027315      0.077889     -0.029625
Li	      2.15848      4.27286      6.14091        -0.061956      0.011204     -0.002353
Li	      4.01625      6.34683      6.16979        -0.111104     -0.002182     -0.001016
Ti	      0.13205      6.37637      6.09729         0.560031     -0.189725      0.136747
Ti	      6.19131      6.32978      4.07213         0.089357     -0.184016     -0.280157
Mn	      8.31075      6.37923      6.12144        -0.115528      0.113779      0.093206
Cr	      4.24124      8.45411      8.17123        -0.165738      0.121830     -0.030535
Cr	      6.21163      4.32036     10.23100        -0.021004      0.199712     -0.067776
Co	      0.03895      2.14072      2.04346         0.008653     -0.081734     -0.050473
Co	      6.24971      6.39720      8.17176         0.007704     -0.079336      0.057642
Cu	      4.09046      4.30228      4.13279         0.037532     -0.033784     -0.110790
Ni	      4.12476      4.32225      8.17751         0.030832      0.023762     -0.025148
O	      2.13511      2.11645      2.12528        -0.171651     -0.007855      0.361557
O	      4.17253      4.19675      2.01262        -0.026109     -0.092487     -0.215717
O	      4.02493      2.02813      4.12509        -0.177725     -0.146418      0.012846
O	      6.07388      4.42233      4.09623         0.156098      0.100960      0.015517
O	      6.09716      2.06536      6.12341         0.080079      0.118347      0.515320
O	      8.39834      4.47583      6.13154         0.071118     -0.012125      0.026184
O	      2.08265      4.09551      4.11308        -0.116985     -0.125828     -0.005456
O	      4.23393      6.55768      4.11803        -0.042650      0.046142     -0.482568
O	      4.15437      4.07235      6.11970         0.015985     -0.120773     -0.044434
O	      6.37144      6.36036      6.17493         0.092187      0.008074     -0.153427
O	      6.20643      4.37830      8.23172         0.071420      0.109637      0.064183
O	      8.25713      6.45659      8.04844         0.171735     -0.026297     -0.151284
O	      1.99028      6.41186      6.14406        -0.482209     -0.025064      0.011517
O	      4.13672      8.67540      6.16304         0.062816      0.071105     -0.034480
O	      4.32365      6.44863      8.12157         0.110252      0.059002     -0.004432
O	      6.21355      8.33171      8.19604        -0.114792     -0.047959     -0.005920
O	      6.29129      6.32845     10.19855        -0.002318     -0.014162      0.195488
O	      8.39884      8.57151     10.18765         0.033978      0.005362      0.080912
