# total energy = -102.19403077 eV
 
CRYSTAL
PRIMVEC
0.000208 2.114411 2.157745 
6.136484 0.040290 -2.199267 
-1.981363 6.350064 -4.321687 
PRIMCOORD
16 1
Li	      0.11966      2.21066      1.96975         0.031063      0.005536      0.019337
Li	      1.86651      1.96815      0.10888         0.001051     -0.012998      0.024727
Li	      0.03972      4.03484      0.20599         0.036254      0.004782      0.004879
Li	     -0.11310      6.43439     -2.24816        -0.029089      0.005857     -0.007181
Ti	      1.93477      4.23963     -2.13984        -0.508425     -0.138207      0.118760
Ti	      2.07409      6.36001     -4.55212        -0.244988      0.098047     -0.173628
Ni	      4.24532      2.23652     -2.28338        -0.109498     -0.100003      0.112564
Ni	      4.24724      4.29872     -4.33863         0.107034     -0.019307      0.006326
O	      4.03517      4.30225     -2.18976        -0.051711      0.009210     -0.044872
O	      4.07915      2.02250      0.03731        -0.017578     -0.098735      0.250009
O	      2.11150      6.40988     -2.10192        -0.099010      0.009079     -0.008918
O	      2.13819      2.32079     -2.35219        -0.091747      0.145924     -0.132406
O	      3.99784      6.32192     -4.20360        -0.129058      0.112684     -0.109618
O	      0.24373      6.33774     -4.31381         0.318909     -0.004411     -0.051566
O	      0.13494      4.30264     -2.17456         0.591852     -0.008613     -0.011445
O	      0.01036      2.07826      0.00815         0.194941     -0.008845      0.003032
