# total energy = -227.47931969 eV
 
CRYSTAL
PRIMVEC
0.050343 6.313912 6.230853 
6.247475 0.019131 6.262769 
4.184800 4.251119 -0.007193 
PRIMCOORD
36 1
Li	      6.40055     10.43727      8.36981         0.031006      0.022954     -0.003978
Li	      8.27480      4.31379      4.14376         0.056497     -0.007698     -0.002863
Li	      6.26820      8.49506     10.28318         0.011545     -0.008173      0.026082
Li	      4.26612      4.18146      4.28492        -0.048062     -0.001029     -0.013522
Li	      4.20180      2.12589      6.27115        -0.007865     -0.075966      0.015929
Li	      6.13068      4.26928      6.18220         0.008712     -0.038734      0.021736
Li	      8.37661      6.38348     10.36767        -0.029049      0.001534     -0.015791
Li	      4.11097      4.27948      8.26645         0.008680      0.045032      0.024314
Li	      6.30096      6.44586      8.28847         0.059035     -0.047098      0.015034
Ti	      8.22600      2.20665      6.14826        -0.260671     -0.027864     -0.236789
Ti	      6.30954      4.35181     10.34687         0.038226      0.421568     -0.286265
Mn	      6.29606      6.24997      4.22151         0.055897     -0.030855     -0.004166
Cr	      4.26666      8.42243      8.34241         0.051159     -0.022985     -0.050909
Cr	      4.15060      6.28816      2.10628        -0.003258     -0.065215     -0.046860
Co	      0.14907      6.31582      6.21385        -0.305173     -0.032733      0.089914
Co	      4.19603      6.29447      6.25487         0.012018     -0.099077      0.081008
Cu	      8.35974      4.31715      8.32978        -0.129473      0.001638     -0.024478
Cu	      6.38931      8.43475      6.34336        -0.101634     -0.052367     -0.007323
O	      2.08301      2.26165      2.14093        -0.013962     -0.183754      0.078794
O	      4.23463      4.25016      2.00335         0.104286      0.031656     -0.511089
O	      4.02926      2.12402      4.10209        -0.034168     -0.020491     -0.018832
O	      6.28022      4.41954      4.12602        -0.024967     -0.025044      0.032489
O	      6.33247      2.18299      6.33016         0.302239     -0.012423      0.024901
O	      8.48399      4.08545      6.22328         0.445970     -0.091707     -0.087615
O	      1.99241      4.06231      4.32602         0.109966     -0.088000      0.099006
O	      4.30054      6.38015      4.15784         0.037661      0.022032     -0.014362
O	      4.11759      4.40609      6.28063         0.134548      0.140822     -0.051604
O	      6.15003      6.22849      6.10319        -0.121373     -0.003091     -0.031085
O	      6.22403      4.09990      8.49023        -0.113336     -0.099140      0.203348
O	      8.46173      6.22916      8.32749         0.039283      0.323164      0.034690
O	      2.24091      6.54330      6.24896        -0.235605      0.274190      0.004832
O	      4.17833      8.31778      6.22704        -0.098828     -0.013865     -0.003622
O	      4.23464      6.45608      8.15703         0.011323      0.022319     -0.022274
O	      6.22012      8.44500      8.29944        -0.030819      0.045634      0.110612
O	      6.35873      6.20171     10.43289        -0.003017     -0.330210      0.353432
O	      8.48098      8.46695     10.50439         0.043210      0.024977      0.217307
