# total energy = -227.15111016 eV
 
CRYSTAL
PRIMVEC
-0.023943 6.286632 6.188970 
6.274202 -0.030675 6.195589 
4.180125 4.192785 -0.017831 
PRIMCOORD
36 1
Li	      4.27107     10.37054      6.27794        -0.073693     -0.002452      0.140400
Li	      6.16153      4.19846      1.98897        -0.047198      0.000914      0.089939
Li	      4.16582      2.19101      2.03297        -0.034016      0.087492      0.031642
Li	      4.20895      6.20979     10.26795         0.007821      0.042066      0.011554
Li	      4.24705      6.13315      2.11800         0.033187     -0.163677      0.015000
Li	      2.20655      4.15000      2.09465         0.044119     -0.022195     -0.049501
Li	     10.42305      8.38293     10.31896        -0.006935     -0.063385     -0.043886
Li	      4.07323      6.31045      6.17294         0.041346     -0.009937     -0.056518
Li	      8.34196      8.40936      8.31852         0.032830      0.028510     -0.022837
Ti	      8.39433      6.19724      6.25498         0.105341     -0.168250      0.025309
Ti	      6.22545      4.14339      6.23371        -0.098313     -0.045576      0.171653
Mn	      2.23849      8.27006      6.25672         0.072354     -0.088094     -0.068582
Cr	      2.03916      2.11304      4.02631        -0.044060     -0.142755     -0.013745
Cr	      6.09348      6.34790      8.27092        -0.306540     -0.184262      0.151867
Co	      6.27246      8.40729     10.24842        -0.024719      0.020769     -0.052144
Co	      6.16783      8.42027      6.17415        -0.191270      0.277514     -0.043486
Ni	      4.14424      4.21290      4.03202         0.084304      0.005301     -0.061042
Ni	      8.36237      6.24459     10.28099         0.128231      0.024317     -0.144134
O	      2.09179      2.09114      2.02927         0.035175     -0.019054     -0.335542
O	      4.17078      4.17366      2.09472        -0.002186     -0.023905     -0.269882
O	      4.11947      2.11956      4.25443         0.006263     -0.149905      0.155330
O	      6.25047      4.24315      4.20429         0.106988      0.038261      0.174935
O	      6.17922      2.19542      6.23888        -0.026151      0.110458     -0.013173
O	      8.22515      4.26912      6.16799        -0.059462      0.104253      0.016379
O	      2.08263      4.14432      4.22798         0.069314     -0.211299     -0.336247
O	      4.23599      6.23322      4.07048         0.013178      0.257536      0.084579
O	      4.24777      4.06405      6.16111         0.340262     -0.116265      0.120780
O	      6.31573      6.25249      6.11847         0.121037     -0.422321      0.097699
O	      6.25498      4.37715      8.10876        -0.019916      0.077408     -0.211747
O	      8.22058      6.28314      8.13863        -0.037421      0.028203     -0.242149
O	      2.08683      6.20015      6.14147        -0.010810      0.822750      0.190847
O	      4.19529      8.39541      6.17051        -0.672051     -0.115544     -0.014760
O	      4.31492      6.23867      8.25490         0.346329      0.082609     -0.041680
O	      6.29324      8.22540      8.13204         0.070179     -0.089213      0.410182
O	      6.27542      6.35472     10.17187        -0.099816     -0.082186     -0.087716
O	      8.30182      8.30350     10.49499         0.096299      0.111915      0.220676
