# total energy = -230.94010199 eV
 
CRYSTAL
PRIMVEC
-0.017855 6.307546 6.223041 
6.342655 -0.000904 6.205989 
4.232809 4.197973 -0.004928 
PRIMCOORD
36 1
Li	      6.28851      8.34899     10.30757        -0.002023     -0.034035     -0.061398
Li	      8.36888      4.22035      8.35760        -0.064624      0.025805      0.005740
Li	      2.05021      2.20657      4.18663        -0.005458      0.041238      0.027556
Li	      4.14983      4.23570      4.20704        -0.022696     -0.003557      0.012340
Li	      0.05686      4.15697      4.04689        -0.024046      0.049337     -0.054768
Li	      6.40995      8.30084      6.18924         0.049122     -0.040367      0.053350
Li	      4.31779      6.23221      6.15674         0.032375     -0.032700      0.009829
Li	      4.25476      4.17484      8.25671         0.007653      0.015846     -0.002106
Li	      6.32131      6.31863      8.25477        -0.043036      0.035312     -0.007519
Ti	      2.18832      8.39868      6.14990         0.339037     -0.133148     -0.397997
Ti	      6.42348     10.40371      8.44955         0.164292     -0.396456      0.170627
Mn	      0.02295      6.31525      6.19407         0.028161     -0.100240     -0.094223
Cr	      8.40037      6.34726      6.20691        -0.036277      0.010954     -0.045871
Cr	      6.28289      4.24802      6.23837        -0.040823      0.053779     -0.131960
Co	      4.21127      2.11851      2.17244         0.068738      0.002205     -0.001230
Co	      4.26064      6.31945     10.31828         0.026862     -0.024821     -0.088303
Co	      2.16428      6.11642      4.05507        -0.042545     -0.093042      0.035943
Cu	      6.32673      2.16803      8.33019        -0.025429     -0.012373      0.032662
O	      2.06358      2.01139      1.99710         0.046969      0.008309     -0.035588
O	      4.36308      4.22245      1.92442         0.017119      0.015771     -0.006599
O	      4.20978      2.05043      4.19330         0.011925      0.000410      0.029403
O	      6.35827      4.18745      4.10348        -0.023469     -0.004450     -0.208984
O	      6.33286      2.13304      6.27301         0.028380     -0.035887     -0.122747
O	      8.40099      4.17326      6.23875        -0.031708     -0.013218      0.000473
O	      2.08347      4.32930      4.16778         0.007741      0.114446     -0.006624
O	      4.12450      6.33551      4.04506        -0.048380     -0.020178      0.184209
O	      4.31677      4.10800      6.19020         0.026057     -0.013910      0.024949
O	      6.42443      6.22306      6.22098         0.021299     -0.025953     -0.005684
O	      6.33193      4.16637      8.17557         0.006472      0.020275      0.051476
O	      8.52483      6.31104      8.24750        -0.063487     -0.025007      0.027331
O	      2.09329      6.45499      6.24080         0.044739      0.176756      0.044833
O	      4.06412      8.49076      6.28386        -0.298907      0.043462     -0.015568
O	      4.09372      6.34239      8.24903        -0.231344      0.009956      0.078641
O	      6.28240      8.54717      8.26164        -0.007986      0.368657      0.031207
O	      6.35258      6.31050     10.50064         0.055339     -0.009095      0.088968
O	      8.38972      8.37454     10.49026         0.029956      0.025920      0.377634
