# total energy = -230.34830565 eV
 
CRYSTAL
PRIMVEC
-0.001425 6.095184 6.360341 
6.212077 -0.010794 6.369344 
4.139828 4.068531 -0.005580 
PRIMCOORD
36 1
Li	      8.25883      8.10562     12.58841         0.004046     -0.006003     -0.007427
Li	      4.18538      8.10523      8.45602         0.000894      0.025761     -0.049438
Li	      6.29261      8.11173     10.59500        -0.024734      0.011407     -0.021979
Li	      6.20001      6.07970      4.26456        -0.005724      0.044097      0.016804
Li	      6.24509      4.05118      6.36071        -0.013966     -0.010276      0.064548
Li	     10.24639      8.11346     10.64285         0.041991     -0.006405     -0.001300
Li	      8.29935      6.20820     10.55335         0.009955     -0.084585     -0.053108
Li	      6.17750      8.14076      6.41474         0.027193      0.010283      0.020346
Li	      8.23610      8.15456      8.61694         0.001295     -0.003954      0.013562
Ti	      1.99004      3.92324      2.14992        -0.239549      0.086628      0.172646
Ti	      4.19660      3.97293      4.29913        -0.126267     -0.021573      0.177793
Mn	      0.05142      6.05840      6.27940         0.039277     -0.166092      0.012949
Cr	      4.13586      6.17211      6.33259        -0.021491      0.069321     -0.036966
Cr	      6.19449      6.19301      8.52279        -0.072822     -0.082797     -0.000631
Co	      4.10603      2.05848      6.36424        -0.069995     -0.047420      0.153002
Co	      6.21639     10.13778      8.47904         0.016153     -0.193327     -0.059483
Co	     10.31063      6.12274      8.51982        -0.164072      0.078831      0.019848
Ni	      8.24673     10.12374     10.58210        -0.009701      0.094698      0.028470
O	      2.03386      2.00509      2.13235         0.073040      0.112679     -0.002644
O	      4.20577      4.04581      2.21279        -0.023528     -0.123773      0.053703
O	      4.11508      2.05961      4.30464         0.035569      0.129094     -0.003846
O	      6.16899      4.06242      4.06804        -0.123270     -0.013862      0.017156
O	      6.15206      1.87743      6.46991         0.176216      0.098313     -0.156195
O	      8.39573      4.02695      6.47101        -0.051720      0.005220      0.104775
O	      2.22606      4.05074      4.03900         0.088021     -0.069613     -0.254241
O	      4.13575      6.01588      4.29417         0.029346     -0.054244      0.147512
O	      4.18388      4.14508      6.20501         0.019744     -0.063665     -0.202366
O	      6.14471      6.11399      6.50072         0.038940      0.040057     -0.037430
O	      6.32518      4.12770      8.46508         0.269394     -0.004166      0.012087
O	      8.20119      6.00614      8.46638         0.038257     -0.109491     -0.065384
O	      2.06281      6.09052      6.54573         0.010835      0.043063     -0.003157
O	      4.17091      8.17893      6.30000        -0.025035      0.055634      0.019120
O	      4.09953      6.12439      8.39025         0.014934      0.055554     -0.027613
O	      6.24350      8.17317      8.48279         0.041765      0.083216     -0.015347
O	      6.14669      6.09251     10.50399         0.000293      0.043435     -0.029561
O	      8.26488      8.16942     10.59683        -0.005281     -0.026044     -0.006203
