# total energy = -223.13663934 eV
 
CRYSTAL
PRIMVEC
-0.017754 6.279142 6.350858 
6.093371 0.000415 6.332508 
4.080844 4.192602 -0.018542 
PRIMCOORD
36 1
Li	      4.12615      8.40677      8.32068        -0.016870      0.027991     -0.111139
Li	      4.05438      6.29986      2.19343         0.021475     -0.058645      0.021918
Li	      4.05981      4.29346      4.32975         0.008631      0.009173      0.026738
Li	      6.00289      4.23078      6.40852         0.015887     -0.058272      0.062853
Li	      4.12612      8.27512      4.24474        -0.034433      0.072439      0.099073
Li	      6.11037      8.32331      6.39104        -0.054150      0.083630      0.077972
Li	      4.10636      6.29713      6.28836        -0.055121      0.098690      0.041084
Li	      4.06237      4.13906      8.32369         0.017509      0.015498      0.003970
Li	      6.09561      6.35270      8.34742        -0.056598      0.042400      0.099324
Ti	      4.11741      6.21601     10.43478         0.283896     -0.120824     -0.287216
Ti	      1.92248      4.17306      2.22034        -0.088715     -0.021342      0.026457
Mn	      8.10043      6.33301      6.36406         0.288935      0.013411      0.071748
Cr	      2.05142      2.11266      0.01446         0.003405     -0.074412     -0.124971
Cr	      6.05790      4.16184      2.07574         0.027567      0.112032     -0.265951
Cu	      6.01790      6.28251      4.32204         0.012432      0.000251     -0.031116
Ni	      4.07277     10.43829      6.33846         0.066588     -0.070097     -0.031309
Ni	      2.10496      6.32479      4.23946        -0.078431      0.006969      0.040503
Ni	      6.04876      2.12425      4.15247         0.024785     -0.074542     -0.022634
O	      4.10723      6.28907      4.28667         0.025524     -0.040764     -0.064513
O	      2.03399      2.12994      2.02015        -0.008856      0.080152      0.209258
O	      4.08776      4.18274      2.01170        -0.282182      0.049417      0.242603
O	      3.96728      1.94536      4.41144         0.009279      0.003159      0.021754
O	      6.18170      4.15256      4.08837        -0.116343      0.313248      0.183105
O	      6.04762      2.00376      6.21961        -0.212242      0.226192      0.024859
O	      8.11903      4.18001      6.31102        -0.236596      0.114181      0.008352
O	      2.06387      4.30388      4.07740        -0.018210     -0.311296     -0.088206
O	      4.07472      3.95337      6.34207        -0.033754     -0.028580     -0.044911
O	      6.22197      6.28707      6.34083        -0.064400     -0.066639     -0.207496
O	      6.21341      4.17725      8.43935         0.313888     -0.012640      0.055961
O	      8.15730      6.17837      8.30842        -0.081377     -0.047377     -0.025095
O	      2.02579      6.38775      6.39458         0.210404      0.003142     -0.048387
O	      3.95520      8.45038      6.32177         0.152054     -0.191014     -0.042188
O	      4.01004      6.28461      8.59833         0.100974     -0.008099      0.288653
O	      6.07612      8.50373      8.49980         0.062519     -0.168786     -0.025830
O	      6.04054      6.34188     10.57869        -0.230184     -0.101248     -0.137186
O	      8.11661      8.44275     10.66327         0.022707      0.182606     -0.048038
