# total energy = -221.63277432 eV
 
CRYSTAL
PRIMVEC
-0.067495 6.390114 6.180508 
6.382374 -0.047576 6.161338 
4.225368 4.217297 -0.002257 
PRIMCOORD
36 1
Li	      6.20098      0.14089      6.13981        -0.031721      0.042888     -0.107257
Li	      8.50893      4.23206      4.22506         0.035279     -0.019839     -0.020918
Li	      6.31352      2.03386      4.24159         0.016192     -0.074598     -0.030109
Li	      6.30340      2.03644      8.08276        -0.055655      0.053363     -0.005893
Li	      8.57711      4.19993      8.08741         0.010780      0.057651      0.030892
Li	      4.30509      4.13400      4.02360         0.017639      0.014104      0.097702
Li	      4.46366      1.90536      6.14414         0.065219     -0.043892      0.010678
Li	      6.50553      4.00804      6.13676         0.038191     -0.048551      0.031363
Li	      8.32756      6.40562     10.21417        -0.060102      0.035433      0.034091
Ti	      2.07033      4.29921      6.10716         0.021186      0.065808     -0.123679
Ti	      4.16871      6.33508      6.11158        -0.019381     -0.076981     -0.104202
Mn	      8.46680      8.39682      8.30772         0.042665     -0.051282      0.049918
Cr	      2.16629      2.06504      4.09743        -0.042213      0.007507      0.091350
Cr	      6.37770      6.28881      8.29040         0.004132      0.013943     -0.033967
Cu	      6.21137      4.27180      2.14293        -0.070681     -0.069082     -0.162071
Cu	      4.18595      2.22817      2.14395        -0.035468      0.064027     -0.106415
Ni	      8.32486      2.22738      6.14769         0.056750     -0.097525     -0.080526
Ni	      6.29457      4.26763     10.28116         0.000411      0.004015      0.005730
O	      6.41167      2.07010      6.15065        -0.247620     -0.047638     -0.014722
O	      8.47051      4.15200      6.18481         0.035839      0.208334      0.000130
O	      2.13134      2.06678      2.08087         0.018864     -0.013671      0.055881
O	      4.27831      4.16595      2.02631         0.000263      0.000370      0.023997
O	      4.11614      2.12478      4.04196        -0.053439      0.029145      0.170742
O	      6.31558      4.34841      4.03376        -0.002494      0.016893      0.235035
O	      2.04688      4.16766      4.25279         0.096466     -0.034074      0.150989
O	      4.29072      6.39904      4.25314         0.044292     -0.076695      0.184559
O	      4.06358      4.36354      6.24896        -0.133121      0.116859      0.002034
O	      6.20901      6.46443      6.16881        -0.091315      0.075483     -0.054139
O	      6.16827      4.29129      8.23146         0.004538      0.004231     -0.092582
O	      8.36876      6.48777      8.20277         0.004068      0.028633      0.034742
O	      2.19858      6.25872      6.23348         0.161678     -0.128204     -0.089737
O	      4.28506      8.35071      6.29015         0.140005     -0.070508     -0.026167
O	      4.30822      6.20881      8.14961         0.037524     -0.045223     -0.056389
O	      6.46726      8.35202      8.17098         0.032560      0.000771      0.002236
O	      6.35180      6.26330     10.20148         0.040919      0.114541      0.059259
O	      8.48198      8.42656     10.21116        -0.082250     -0.056236     -0.162553
