# total energy = -222.43176557 eV
 
CRYSTAL
PRIMVEC
-0.044909 6.304076 6.246078 
6.294422 -0.051569 6.252699 
4.152579 4.163505 0.009263 
PRIMCOORD
36 1
Li	      6.17980      4.17565      2.07088         0.022100     -0.034488      0.047075
Li	      4.13313      2.14508      2.02960        -0.005327      0.011414      0.104298
Li	      4.17833      6.20493      2.20315         0.016817     -0.007508     -0.064808
Li	      2.12432      4.12771      2.18736         0.035040     -0.044338     -0.093019
Li	      4.07038      4.24666      4.09537         0.035104     -0.028357     -0.041222
Li	      4.20935      8.28199      4.17732        -0.025938      0.048970      0.002804
Li	      6.17852      8.35110      6.23093        -0.042121      0.045941     -0.012561
Li	      4.12121      6.33315      6.19833        -0.044184      0.060143      0.030124
Li	      6.29867      6.30610      8.32786        -0.057469      0.040239      0.041818
Ti	      4.16086      6.22833     10.23509         0.005225      0.199884     -0.094703
Ti	      6.15481      4.23838      6.37699         0.278201     -0.176350     -0.170714
Mn	      4.15618     10.37986      6.34885        -0.198522      0.398122     -0.396298
Cr	      6.24194      8.34387     10.36768        -0.191402     -0.019801      0.690056
Cr	      8.34474      6.20658      6.32284         0.131870     -0.134918     -0.205921
Cu	      1.93654      2.23257      4.00747         0.055805     -0.085408      0.325991
Cu	      2.16485      6.14809      4.10179         0.005504     -0.049907      0.122164
Cu	      8.28426      8.29523      8.34104        -0.142071      0.162072      0.028357
Ni	      2.10323      2.05993      0.15032        -0.178723      0.076905     -0.054487
O	      8.29635      6.31879      8.31501         0.031942     -0.087107     -0.108666
O	      2.08378      2.06972      2.12762         0.046178     -0.043273     -0.027102
O	      4.18375      4.17493      1.88462        -0.021070     -0.013688      0.389765
O	      4.28385      1.90224      4.26538        -0.311069      0.115094     -0.027362
O	      6.40904      4.02949      4.27021        -0.033077      0.393837     -0.004652
O	      6.22303      2.04492      6.19296        -0.001603     -0.043598      0.282649
O	      8.36819      4.18630      6.26596         0.004681     -0.037301      0.115782
O	      2.07541      4.17460      4.15274        -0.063061      0.019542     -0.013930
O	      4.13475      6.27473      4.20026        -0.036875      0.018805     -0.058359
O	      4.32920      4.03536      6.11799        -0.364353      0.153946     -0.005693
O	      6.33249      6.11402      6.17116        -0.125374      0.188147      0.009815
O	      6.17633      4.16843      8.18483         0.223956     -0.017889      0.235355
O	      1.87320      6.32542      6.12401         0.106966     -0.149021      0.263507
O	      4.06807      8.55116      6.27533         0.236584     -0.257741     -0.035736
O	      4.18292      6.21206      8.42892         0.009828      0.019730     -0.195171
O	      6.32098      8.34008      8.49934         0.055145     -0.021418     -0.976891
O	      6.12386      6.34684     10.54422         0.140368     -0.476284      0.029359
O	      8.22954      8.47736     10.61634         0.400923     -0.224396     -0.131624
