# total energy = -102.15072737 eV
 
CRYSTAL
PRIMVEC
0.002090 2.145348 2.155200 
5.884770 4.457492 -6.626904 
-3.960387 2.230683 -2.244640 
PRIMCOORD
16 1
Li	      0.00809      0.09400     -0.11112         0.024431      0.010734     -0.020054
Li	     -1.91646      4.54823     -2.40324        -0.016562     -0.008298      0.009091
Li	      1.81818      6.66991     -4.53120        -0.014090     -0.022115      0.026527
Li	      2.02693      4.09822     -1.95124         0.011909     -0.001493      0.000613
Ti	     -2.06109      2.17762     -0.20121         0.006060      0.068811     -0.225726
Ti	      3.76057      4.43481     -4.50920        -0.371042     -0.203121      0.125962
Ni	      0.05467      4.14581     -4.14564         0.127490      0.116155     -0.117611
Ni	      0.13416      2.16465     -2.17121        -0.026070      0.019207     -0.018870
O	      3.85866      4.71084     -2.57481        -0.000311      0.223557     -0.125536
O	      0.08972      4.28664     -2.14284         0.006576     -0.056347      0.063986
O	      1.94826      4.60030     -4.58852         0.517105      0.007478     -0.024082
O	     -0.12749      2.21801     -0.05068        -0.164290     -0.102570      0.080642
O	      2.13201      2.15376     -2.15360        -0.084504      0.011805     -0.007150
O	      1.90848      6.73359     -6.73605         0.088537     -0.009456     -0.003313
O	     -2.00537      2.02819     -2.07395        -0.098488     -0.091143      0.265275
O	      3.86583      6.75082     -4.45748        -0.006750      0.036796     -0.029755
