# total energy = -229.32033385 eV
 
CRYSTAL
PRIMVEC
0.018933 6.224473 6.478872 
6.191217 0.040609 6.457822 
4.148079 4.156222 0.006428 
PRIMCOORD
36 1
Li	      6.25612      6.22719     12.79757         0.012930      0.051609     -0.021232
Li	      2.11458      6.21029      8.53328         0.050050     -0.041353     -0.127808
Li	      4.22541      6.26763     10.75951        -0.003771      0.001813     -0.105843
Li	      6.21586      6.23648      4.46781        -0.020954      0.008361      0.040823
Li	      8.17063      6.16838      6.48738        -0.016077     -0.062784      0.073761
Li	      6.22960      4.30315     10.84763         0.031375      0.003992     -0.033874
Li	      6.11651      8.25386      6.48932        -0.043451     -0.037796     -0.000084
Li	      4.23542      6.32194      6.52209        -0.033941      0.037557      0.028461
Li	      6.17128      6.28443      8.54575        -0.010725      0.000718     -0.084108
Ti	      0.07337      2.04505      2.16402         0.072357      0.004678     -0.100242
Ti	      4.14041      4.11984      4.49336         0.051439     -0.041321      0.090754
Mn	      2.13724      8.30030      6.44491        -0.042448     -0.199566      0.004281
Cr	      4.18255      8.28195      8.61370         0.039646     -0.069656     -0.029179
Cr	      8.24672      6.28504     10.78322         0.049244      0.057721      0.048658
Fe	      4.01253      4.32912      8.59853         0.155535     -0.084172     -0.085302
Co	      8.22871      4.21851      8.60756         0.166191     -0.053062      0.072180
Cu	      6.20276      8.28220     10.77294        -0.011157      0.025136     -0.109179
Cu	      6.22375      4.23076      6.45260         0.037033      0.230245      0.141462
O	      6.23162      6.16222      6.45208         0.009771      0.016170     -0.020240
O	      2.05166      2.05727      2.24636        -0.074602      0.152384     -0.001832
O	      4.16051      4.17115      2.30797        -0.156858      0.053420      0.100174
O	      4.16910      2.17715      4.19175        -0.016408      0.145773     -0.053879
O	      6.11212      4.07058      4.45604        -0.063925     -0.145724     -0.070422
O	      6.29165      2.08189      6.68942         0.061538      0.030442      0.295481
O	      8.21087      4.09586      6.52978         0.027740      0.041579      0.615840
O	      2.16359      4.21528      4.31099         0.032049      0.065686     -0.467993
O	      4.13284      6.12530      4.19494        -0.066345     -0.199310     -0.053379
O	      4.18011      4.14531      6.40556        -0.170146     -0.047148     -0.174986
O	      6.13529      4.08666      8.57722         0.086361     -0.190763      0.117275
O	      8.40669      6.32773      8.69544         0.054478     -0.108132      0.027440
O	      2.11895      6.38397      6.29800        -0.008623      0.045463     -0.081472
O	      4.05716      8.34776      6.61193        -0.015124      0.077194      0.011517
O	      4.12033      6.25359      8.63122         0.004308      0.218136      0.002568
O	      6.21677      8.35207      8.47524        -0.215331      0.006276     -0.080899
O	      6.28743      6.32973     10.76756        -0.008364      0.040937      0.010467
O	      8.24388      8.31356     10.63832         0.036204     -0.034502      0.020812
