# total energy = -229.93198164 eV
 
CRYSTAL
PRIMVEC
-0.000535 6.245385 6.189355 
6.261253 0.007375 6.181331 
4.176618 4.160716 0.002520 
PRIMCOORD
36 1
Li	      6.27868      4.11243      2.16589        -0.020151     -0.007636     -0.019883
Li	      4.16648      2.16196      2.17404         0.001288      0.021576     -0.133472
Li	      6.18784      8.31904     10.21144         0.079376      0.036571     -0.025722
Li	      2.23358      2.03567      4.07509        -0.041786      0.021251     -0.025263
Li	      4.25790      3.95791      4.05425         0.003983      0.008300      0.104770
Li	      4.21878      2.05594      6.08944         0.047994      0.057832      0.003031
Li	      6.23517      4.30638     10.25531        -0.015655     -0.018431      0.026699
Li	      8.19689      6.28398     10.26596        -0.032592      0.005414      0.063563
Li	      6.29619      6.30561      8.35461        -0.010020      0.021488     -0.057173
Ti	      4.16041      6.18768      2.28525         0.187752     -0.195404      0.297926
Ti	      6.21010      8.23382      6.12237         0.134864     -0.026138     -0.150473
Mn	      4.19857      6.33792     10.22693        -0.036907     -0.014103      0.021937
Cr	      6.26613      4.17323      6.15979        -0.127130     -0.002049     -0.061344
Cr	      4.14512      6.22659      6.16337         0.009714      0.097152     -0.173113
Fe	      8.30488      8.30512     12.32235         0.175936      0.000377     -0.106813
Co	      8.34756      8.32501      8.26317        -0.221389     -0.360169      0.792323
Ni	      6.22559      0.05627      6.15310         0.050870     -0.068953      0.098031
Ni	      2.07011      4.19058      2.19572        -0.060784      0.026401      0.068595
O	      1.96259      2.12342      1.98996        -0.098877     -0.107680      0.083444
O	      4.12448      4.27368      2.02086         0.133322      0.154128      0.128904
O	      4.19913      1.99133      4.08469         0.003326     -0.165391      0.012228
O	      6.38216      4.17913      4.21311         0.100987     -0.002441     -0.036413
O	      6.32307      2.15103      6.25148        -0.162365      0.066989      0.106783
O	      8.28800      4.10475      6.30505        -0.035741      0.140582     -0.293735
O	      2.11335      4.17353      4.24850        -0.085844     -0.019896      0.333935
O	      4.19570      6.24530      4.11728        -0.044111      0.006620     -0.270331
O	      4.18017      4.20351      6.26450         0.054924      0.137124     -1.410535
O	      6.17403      6.26954      6.17697        -0.016858      0.048282      0.025126
O	      6.18437      4.09200      8.20347         0.800129     -0.062925     -0.092685
O	      8.46290      6.32774      8.26206         0.108828     -0.421969      0.039267
O	      2.10893      6.24873      6.13618         0.094720     -0.139215      0.073206
O	      4.23018      8.27363      6.24568        -0.006903     -0.069588     -0.097795
O	      4.17026      6.08328      8.12305         0.096552      0.784025      0.098540
O	      6.43726      8.32526      8.06938        -1.040076     -0.062698     -0.262860
O	      6.14793      6.27465     10.36359        -0.069256      0.035108     -0.205427
O	      8.36051      8.45395     10.28387         0.041878      0.075465      1.044726
