# total energy = -233.53648350 eV
 
CRYSTAL
PRIMVEC
0.002510 6.154878 6.376368 
6.108060 -0.001519 6.381095 
4.097128 4.131048 -0.025670 
PRIMCOORD
36 1
Li	      8.13749      2.09304      6.40414        -0.002594      0.010088      0.043664
Li	      6.14045      4.11967      2.22376         0.025268      0.024151      0.056767
Li	      6.13041      8.28995     10.54986         0.049484     -0.028431     -0.025134
Li	      2.00587      4.09813      2.22966         0.018190      0.050368      0.063208
Li	      2.02598      2.01133      4.19883        -0.017968     -0.065500      0.026858
Li	      4.07318      4.15432      4.23450         0.003726      0.030693      0.027419
Li	      6.15942      4.07890      6.32312        -0.028724      0.003185     -0.001980
Li	      0.06487      4.06904      4.17395        -0.009578      0.022705     -0.029868
Li	      2.01834      4.12407      6.30810         0.048630     -0.001971     -0.065673
Ti	      0.07258      6.12043      6.36584         0.106385     -0.037039     -0.016363
Ti	      3.97159      2.14597      6.31567        -0.219450      0.316081      0.130443
Mn	      8.10412     10.17240     10.61539        -0.159122     -0.134273     -0.084412
Cr	      0.07781      2.07850      2.16435         0.007833      0.027209      0.185691
Cr	      4.08409      6.17900      6.31039         0.074581     -0.100910      0.050775
Fe	      4.05117      2.11459      2.18002        -0.006285     -0.008053      0.051158
Co	      8.10794      8.23043      8.50087         0.155087     -0.112399     -0.125511
Co	      6.14011      6.10018      8.50800        -0.171050      0.261959     -0.074129
Co	      2.04717      6.15547      4.24547         0.043901     -0.029681     -0.067635
O	      2.07949      2.10738      2.18088        -0.197437     -0.030297     -0.048016
O	      4.15697      4.12345      1.96835        -0.015363      0.138368     -0.029748
O	      4.07753      2.01137      4.34591         0.029791      0.009696      0.063419
O	      6.26820      4.08304      4.26044         0.123411     -0.005676     -0.031891
O	      6.05700      1.96532      6.51232        -0.003252     -0.093846      0.011595
O	      8.28847      4.23764      6.32042         0.030217      0.003890      0.025815
O	      2.05455      4.33329      4.22625        -0.010063      0.107301      0.009020
O	      4.04417      6.18030      4.24009        -0.058968      0.034082     -0.073343
O	      4.07752      4.09650      6.35656         0.006096     -0.136634      0.056057
O	      6.15379      6.18562      6.33718         0.122876      0.012199     -0.063453
O	      6.06561      4.06199      8.48409        -0.578842      0.277630     -0.062968
O	      8.22656      6.13259      8.34431        -0.177448     -0.069920      0.021552
O	      2.04253      6.18712      6.32607        -0.184519      0.024169     -0.010160
O	      4.07708      8.25261      6.45873         0.002855      0.131759      0.006168
O	      4.06497      6.22444      8.36487         0.359053     -0.048511      0.052628
O	      6.03970      8.13982      8.52393         0.552746     -0.591268     -0.018078
O	      6.05007      6.11983     10.76818         0.058530      0.009143      0.115330
O	      8.13996      8.14806     10.57815         0.022004     -0.000267     -0.169205
