# total energy = -227.33296008 eV
 
CRYSTAL
PRIMVEC
0.001171 6.216788 6.397261 
6.347990 0.038972 6.358281 
4.235386 4.122141 0.023378 
PRIMCOORD
36 1
Li	      4.22957      4.12271      0.08072        -0.039731     -0.000267     -0.003766
Li	      8.36447      4.24628      8.59551        -0.008502     -0.045186     -0.018307
Li	      6.23365      6.28300      4.39645        -0.024786     -0.074014      0.111590
Li	      8.37170      6.25734      6.53030         0.003717     -0.059648     -0.026735
Li	      6.27534      4.27078      6.51569        -0.008392      0.021629     -0.010318
Li	      0.14832      4.07382      4.12702         0.008605      0.025238     -0.029472
Li	      2.17008      6.11620      4.14986        -0.002244      0.013428     -0.046117
Li	      4.32966      6.14896      6.35184         0.005102      0.011018      0.006744
Li	      4.34112      4.07278      8.36989         0.000203      0.029338     -0.033285
Ti	      2.28212      8.26985      6.41869         0.188177      0.250964     -0.072021
Ti	      6.39018      8.22654     10.76362         0.002871     -0.215436      0.180737
Mn	      8.45323      4.17894      4.29717         0.021008     -0.040736      0.107598
Cr	      4.17348      4.19722      4.30000         0.025861     -0.151064      0.066129
Cr	      2.13924      4.13225      6.36769        -0.033456     -0.033930      0.004198
Fe	      6.32457     10.34029      8.51339         0.079650     -0.004726      0.124478
Cu	      4.20695      2.10472      2.16323        -0.076907     -0.004695     -0.064296
Cu	     10.44846      6.33224      8.55547         0.116573     -0.074089     -0.046471
Ni	      6.47302      6.17870      8.47255        -0.053477     -0.012517      0.009235
O	      6.32347      4.17656      8.50189         0.022964     -0.026782     -0.018976
O	      1.92052      2.02716      1.92955        -0.034946      0.071355      0.028132
O	      4.27982      4.04936      2.22667        -0.102161      0.154222     -0.088669
O	      4.35800      2.07660      4.25595         0.047521      0.065430      0.036852
O	      6.25649      4.06175      4.16903        -0.048809     -0.048560     -0.008525
O	      6.45741      2.05390      6.20649         0.044841      0.024112     -0.195041
O	      8.50780      4.02876      6.21011         0.006438     -0.160397      0.035954
O	      2.19371      4.12001      4.39228        -0.037227      0.016904     -0.076963
O	      4.23643      6.11202      4.16503        -0.014964      0.106648      0.041224
O	      4.11478      4.17427      6.26407         0.020387      0.019520      0.071847
O	      6.32270      6.29670      6.49141        -0.006616      0.009295     -0.134726
O	      8.52997      6.21033      8.49192        -0.095283     -0.001362      0.002360
O	      2.12789      6.25465      6.47854         0.012597      0.073087     -0.059473
O	      4.18709      8.26755      6.43311        -0.126553      0.018293     -0.043657
O	      4.13214      6.37792      8.72081         0.065970     -0.174043     -0.061535
O	      6.46614      8.34803      8.51226         0.062327     -0.005926      0.031803
O	      6.38049      6.36305     10.52373         0.056770      0.279650      0.101991
O	      8.37694      8.39520     10.75541        -0.077527     -0.056755      0.077483
