# total energy = -227.83981932 eV
 
CRYSTAL
PRIMVEC
-0.043029 6.277142 6.053841 
6.430171 -0.058661 6.069136 
4.248072 4.155769 0.000111 
PRIMCOORD
36 1
Li	      0.10695      6.22243      6.00670        -0.073307      0.035578      0.016527
Li	      2.15738      8.17730      6.02517        -0.015725      0.035024      0.028159
Li	      6.32115      6.23946      4.08831         0.009743     -0.003420     -0.051604
Li	      4.19927      2.14245      6.07874         0.021253     -0.087415      0.046585
Li	      6.31312      4.25693      6.06321         0.040480      0.038545      0.070809
Li	     10.54651      8.31116     10.16464        -0.002696      0.031999     -0.058120
Li	      2.15570      6.28267      4.12574         0.065051      0.005337     -0.122195
Li	      4.21346      6.23848      6.07240         0.056159     -0.013662     -0.041932
Li	      6.25065      6.24793      8.08100         0.052820     -0.121707      0.017351
Ti	      8.48905      4.16079      7.92994        -0.124121      0.127031     -0.246051
Ti	      6.29253      8.22922      6.03242        -0.084376     -0.420556     -0.163184
Mn	      6.44800      2.06400      8.05148         0.029392      0.004075     -0.022407
Cr	      8.52735      4.11387      4.08163        -0.039897      0.031964      0.272623
Cr	      4.27040      4.18629      4.06970         0.025120      0.032393     -0.069304
Fe	      6.42981      1.96062      4.17121         0.039474      0.053942     -0.005805
Cu	      2.17762      6.25039      8.02386        -0.023482      0.072514      0.059074
Cu	      4.23224      8.27750      8.02034        -0.224410     -0.028571     -0.019835
Cu	      4.27997      4.11875      8.06817        -0.083609     -0.157573     -0.024961
O	      4.25356      6.08627      8.16678         0.015485      0.153207     -0.109445
O	      2.05254      2.21712      1.98485         0.043011      0.154189     -0.006623
O	      4.13176      4.32029      2.04637        -0.021801     -0.079278     -0.006383
O	      4.33053      2.06030      3.94216        -0.004293     -0.002756      0.104773
O	      6.37382      4.06613      3.96686         0.045882      0.003567      0.088536
O	      6.43446      2.06816      6.10705         0.009074      0.019929      0.090322
O	      8.50022      4.18226      6.10462         0.014505      0.021251      0.172006
O	      2.25299      4.18420      4.04951        -0.042583      0.001768      0.207050
O	      4.29336      6.15222      3.90553        -0.005355      0.016758      0.026374
O	      4.16748      4.15387      6.05803        -0.067620      0.009753     -0.101792
O	      6.38916      6.36153      6.08065        -0.039692      0.351429     -0.022185
O	      6.59522      4.01506      8.14154         0.114321      0.181921     -0.029287
O	      8.72704      6.17469      8.09504        -0.104306     -0.206941      0.010876
O	      2.12943      6.13445      6.12178         0.011974     -0.037110     -0.159760
O	      4.34503      8.30687      6.08679         0.123723      0.029433     -0.143054
O	      6.24632      8.29308      8.07169         0.231990     -0.088532      0.023881
O	      6.22418      6.30475     10.11938        -0.035504     -0.163010      0.009320
O	      8.40854      8.37429     10.06609         0.043318     -0.001079      0.159661
