# total energy = -227.74361506 eV
 
CRYSTAL
PRIMVEC
0.014412 6.250167 6.369124 
6.152791 0.018751 6.364655 
4.112274 4.174135 0.002122 
PRIMCOORD
36 1
Li	      6.16138     10.36295      8.47400         0.003822      0.026373     -0.032030
Li	      6.18277      8.39221     10.56181         0.025525      0.047761     -0.049734
Li	      4.11896      6.23720      2.18424         0.015827     -0.032016      0.056083
Li	      6.08891      6.23128      4.34155        -0.041353     -0.015880      0.057979
Li	      4.08486      2.14177      6.35562        -0.040887     -0.022579     -0.016287
Li	      4.12422      8.24597      4.33516         0.041929     -0.068414      0.074005
Li	      6.16866      8.32119      6.42816         0.007393      0.002017     -0.003840
Li	      4.13963      6.24904      6.27802        -0.011166     -0.034120     -0.042012
Li	      6.18871      6.32700      8.39538         0.001671     -0.008655     -0.085848
Ti	      4.17813      6.33580     10.50795        -0.015665      0.153850     -0.140346
Ti	      1.97504      4.17461      2.26332        -0.160999     -0.053218      0.271375
Mn	      8.21396      6.28848     10.63156         0.026239     -0.022215      0.041134
Cr	      8.24168      8.38528     12.71530        -0.002067      0.040965      0.030261
Cr	      4.20381      8.34429      8.44996        -0.023864      0.019535      0.001479
Fe	      6.08226      4.22184      6.34728         0.161798     -0.141674      0.087396
Ni	      6.17240      0.07404      6.37872        -0.016705      0.088407      0.068814
Ni	      4.15116      4.16228      4.27172        -0.035656     -0.063810     -0.020843
Ni	      8.17382      8.31719      8.44420         0.037793      0.037463      0.139838
O	      2.13247      2.18908      1.99667        -0.023417      0.088237     -0.004326
O	      4.03708      4.10951      2.11053        -0.049244      0.017225      0.015140
O	      4.13679      2.03109      4.14652         0.014129     -0.237167     -0.060987
O	      6.25969      4.20622      4.34128         0.203256     -0.017286     -0.114866
O	      6.22685      2.24711      6.37636         0.041608     -0.130528     -0.027102
O	      8.21375      4.18715      6.38048        -0.084197     -0.013558     -0.017716
O	      2.05068      4.06394      4.11990        -0.123736      0.025424     -0.283058
O	      3.97130      6.18248      4.25189        -0.056788      0.111757     -0.009084
O	      4.17526      4.12201      6.38249        -0.164802     -0.033765     -0.038908
O	      6.14700      6.02995      6.37927        -0.012537      0.317957      0.015552
O	      6.22745      4.15552      8.42056         0.201769     -0.006111      0.051223
O	      8.20683      6.17853      8.62787        -0.021159     -0.124125      0.013638
O	      2.03141      6.38470      6.22094         0.141616     -0.003836      0.021894
O	      4.08712      8.38848      6.45729         0.007509     -0.052322     -0.025648
O	      4.11165      6.29028      8.63216         0.039261     -0.001568      0.172481
O	      6.16027      8.35125      8.43220         0.004732      0.015689      0.019005
O	      6.14478      6.29477     10.69273        -0.099541      0.045108     -0.110441
O	      8.25711      8.51203     10.65454         0.007906      0.045078     -0.054218
