# total energy = -233.80857845 eV
 
CRYSTAL
PRIMVEC
0.005278 6.343822 6.198906 
6.313367 -0.005527 6.209651 
4.197295 4.224875 0.007864 
PRIMCOORD
36 1
Li	      6.35218      6.43365     12.33216        -0.002850      0.001371      0.056248
Li	      8.26414      2.04477      6.25392        -0.024020      0.001052      0.003452
Li	      6.35582      2.05597      4.26908         0.034902      0.015220     -0.013582
Li	      6.26932      2.22967      8.22089         0.040402      0.000054      0.040417
Li	      6.28131      4.16805      6.29991        -0.022064      0.065790     -0.027925
Li	      8.41968      6.36987     10.35052         0.007669      0.007557      0.007829
Li	      2.10774      4.20941      6.17790         0.026974     -0.041787     -0.029038
Li	      4.25092      6.31073      6.14997         0.064367     -0.036274     -0.035742
Li	      4.27215      4.19212      8.27774        -0.009236      0.026285      0.000971
Ti	      2.13020      6.27661      8.08647        -0.015305      0.120718     -0.290165
Ti	      8.38056      4.09613      4.30860        -0.134547     -0.211299      0.153865
Mn	      4.20247      4.28362      4.16037         0.053674      0.020481      0.037755
Cr	      4.19472      8.43886      8.18481        -0.112364     -0.021426      0.057788
Cr	      6.33978      6.36594      8.24131        -0.093006      0.110181     -0.100429
Fe	      4.33597      2.20490      6.27815        -0.327124     -0.012446     -0.083983
Fe	      4.22095      8.37736      4.24965        -0.064006      0.021011     -0.039324
Co	      6.27194      6.32320      4.22473         0.167471      0.017160     -0.293027
Cu	      8.36827      4.25522      8.24927         0.020893     -0.055135     -0.118445
O	      2.18339      1.90204      2.09497         0.000038     -0.261616      0.065038
O	      4.26769      4.12449      2.17607         0.126804     -0.054547      0.032692
O	      4.18344      2.08970      4.09008        -0.456441      0.028530      0.050288
O	      6.43856      4.17626      4.05042         0.042282      0.069064      0.035694
O	      6.21468      2.11155      6.24999         0.216806     -0.008218      0.003844
O	      8.40945      4.28508      6.17376        -0.010348     -0.039761     -0.197552
O	      2.04098      4.21263      4.01662         0.098406     -0.034592      0.046927
O	      4.21186      6.33610      4.13000         0.442402     -0.028115     -0.019597
O	      4.22132      4.20797      6.03083        -0.050859      0.063786     -0.062740
O	      6.41823      6.34097      6.25520         0.062118     -0.064527      0.014508
O	      6.36503      4.34571      8.37319        -0.113506     -0.008414     -0.002910
O	      8.30810      6.47753      8.24347        -0.004848      0.121711      0.170179
O	      2.08413      6.32459      6.30317         0.037060     -0.026378      0.311253
O	      4.20616      8.45234      6.18608         0.045290     -0.012391      0.141193
O	      4.18912      6.38670      8.30689         0.022514      0.021319      0.044039
O	      6.21831      8.48956      8.25413         0.014134     -0.002624      0.017566
O	      6.16779      6.31018     10.27200        -0.066478     -0.021246      0.016706
O	      8.47135      8.57920     10.38077        -0.017203      0.229508      0.006210
