# total energy = -103.16086345 eV
 
CRYSTAL
PRIMVEC
0.000121 2.089329 2.089733 
8.362490 -4.230420 4.231732 
2.079812 4.206735 -2.117724 
PRIMCOORD
16 1
Li	      0.13110      2.10857      2.07256        -0.013875     -0.001384      0.002909
Li	      2.10203      1.96147      0.13111        -0.010602      0.009076     -0.007042
Li	      3.97048      2.16794      2.01427        -0.001727      0.012350     -0.014574
Li	      6.33856     -2.12460      4.21653         0.020544     -0.005545      0.009971
Ti	      6.20602      2.06444      0.01786        -0.272307      0.029168     -0.026363
Ti	      8.53422     -0.04110      4.22565         0.537908     -0.078366      0.073432
Ni	      1.98390      0.06314      2.02889        -0.046487     -0.054596      0.055284
Ni	      6.28263     -0.03591      2.12990        -0.003309      0.090608     -0.090396
O	      6.28222      2.13755      2.04517         0.011670      0.115218     -0.108558
O	      6.19893      0.01218      4.17141        -0.005927     -0.122572      0.121593
O	      8.30757     -0.10751      2.20116         0.098418     -0.040699      0.041440
O	      8.31643     -1.99342      4.08727        -0.000798      0.113728     -0.115008
O	      1.97739      4.21462     -0.03307        -0.572127      0.001736     -0.002488
O	      2.07350      2.04976      2.13189         0.012103      0.125446     -0.129888
O	      4.33184      2.12361     -0.03007         0.285304     -0.090598      0.082996
O	      4.22346     -0.14499      2.23746        -0.038786     -0.103570      0.106693
