# total energy = -234.13055605 eV
 
CRYSTAL
PRIMVEC
0.038273 6.223210 6.395850 
6.263303 0.031371 6.403404 
4.180351 4.158742 0.015567 
PRIMCOORD
36 1
Li	      2.06544      2.07203      0.08024        -0.038561      0.003514      0.042267
Li	      6.23768      4.19075      2.33332        -0.009554      0.018801      0.013723
Li	      6.33389      8.43687     10.58423         0.022680     -0.030772     -0.004545
Li	      2.06107      4.07386      2.19459         0.029484     -0.015273      0.036425
Li	      6.19492      6.10361      4.22607        -0.023601      0.008612     -0.034439
Li	      4.36798      4.20645      4.21435         0.019180      0.025220      0.008053
Li	      6.26303      4.18894      6.34223         0.015108     -0.071045     -0.001926
Li	      4.22086      6.18426      6.43741        -0.016365     -0.013787     -0.004650
Li	      4.23012      4.21329      8.51190         0.025544     -0.015480     -0.033682
Ti	      4.20753      2.15607      6.25516         0.300512      0.041146     -0.151860
Ti	      2.23508      6.27343      4.20026         0.406653     -0.041580      0.009535
Mn	     10.43932      4.21509      6.44868        -0.108478      0.183705      0.095086
Cr	      8.32717     10.33396     10.66470        -0.166533      0.007803      0.085521
Cr	      6.28044      6.20320      8.53162        -0.010298     -0.019061     -0.106263
Fe	      4.04352      2.16148      2.17339         0.032896     -0.046612      0.048856
Fe	      2.12208      4.18490      6.41509         0.012325      0.028353     -0.084059
Co	      0.08987      2.08657      2.14756         0.137047     -0.003062     -0.098493
Ni	      6.30170      4.17469     10.63398         0.036177     -0.094949      0.034651
O	      2.13132      2.07981      2.13985        -0.251262     -0.051574      0.024453
O	      4.18958      4.12417      2.18837         0.001599      0.298858     -0.019720
O	      4.16069      2.01357      4.35243         0.026189      0.029909      0.149046
O	      6.37357      4.13747      4.32958         0.084590     -0.012093     -0.028449
O	      6.15394      2.00474      6.41913        -0.258672      0.019254      0.026637
O	      8.46848      4.25873      6.30923        -0.019834      0.094758     -0.058923
O	      2.08207      4.31869      4.37803         0.064557      0.152015      0.004361
O	      4.11681      6.25603      4.34226        -0.402818     -0.087680     -0.024702
O	      4.14406      4.04116      6.39955        -0.014753     -0.182601     -0.003977
O	      6.39203      6.27280      6.49840         0.056761      0.012988      0.053999
O	      6.29256      4.18340      8.57986        -0.058983     -0.126042     -0.057492
O	      8.35162      6.23649      8.58242        -0.020042      0.012984      0.116421
O	      2.01544      6.22374      6.23768         0.042163      0.018912     -0.076850
O	      4.24575      8.42864      6.43379         0.004774     -0.064052      0.058458
O	      4.26412      6.30334      8.62202         0.105136     -0.040041     -0.040128
O	      6.19022      8.24145      8.43093         0.016952     -0.040614      0.071844
O	      6.29696      6.24347     10.55382         0.022056      0.125773     -0.037544
O	      8.39203      8.27873     10.66760        -0.062626     -0.126287     -0.011636
