# total energy = -236.80003758 eV
 
CRYSTAL
PRIMVEC
0.024650 6.205709 6.328894 
6.387120 -0.001552 6.355396 
4.237760 4.134383 0.019256 
PRIMCOORD
36 1
Li	      8.47023      2.10071      6.31618        -0.048209      0.036129      0.009146
Li	      6.44707      8.25783     10.62560         0.024030      0.020074      0.052233
Li	      8.37489      4.25670      8.42127         0.003247     -0.061493     -0.062338
Li	      6.33546      6.21949      4.23942        -0.037652      0.010927     -0.017908
Li	      8.54838      6.17134      6.49079         0.086764      0.021485      0.053004
Li	      6.38504      4.10137     10.49368         0.047184     -0.048393     -0.003560
Li	      4.23171      6.20789      6.27945         0.013211     -0.008131     -0.003907
Li	      8.59981      8.18285      8.51494         0.023432      0.044582     -0.033067
Li	      6.55749      6.10756      8.51304         0.013938      0.015792     -0.036525
Ti	      4.15083      2.02517      2.13655        -0.144761     -0.083180     -0.019448
Ti	      6.38897      8.09634      6.36714        -0.017474     -0.351748      0.033529
Mn	      6.40046      4.13590      6.37759         0.005424     -0.094207     -0.002645
Cr	      6.40294     10.32545      8.46400         0.014678     -0.018748      0.084898
Cr	      8.49211      6.26395     10.57118         0.006310      0.000292     -0.076072
Fe	      8.69876     10.20646     10.63354        -0.204734      0.175853     -0.015026
Fe	      4.24779      4.16559      4.28403         0.043803     -0.048455     -0.012236
Co	      6.35686      0.09772      6.33268        -0.027380     -0.158963     -0.178475
Co	      6.33425      2.13158      8.45625        -0.099300      0.062316     -0.030677
O	      2.23829      2.00597      2.09247         0.210795      0.026802     -0.011011
O	      4.35024      4.06997      2.20092        -0.064087     -0.011080     -0.212273
O	      4.27308      2.10469      4.06843        -0.025744     -0.074896     -0.244539
O	      6.33141      4.15570      4.25769         0.011727     -0.007414     -0.122839
O	      6.37794      2.16210      6.38230         0.087945      0.158065      0.004294
O	      8.56584      4.17820      6.23823         0.532232     -0.028404      0.094602
O	      2.17617      4.19714      4.36250        -0.060775      0.006295      0.113729
O	      4.15012      6.14815      4.22258        -0.051265      0.017355      0.029203
O	      4.11363      4.11984      6.26939        -0.169686      0.007686      0.069615
O	      6.34672      6.22621      6.34379         0.014088      0.297835      0.000056
O	      6.40084      4.16297      8.27164         0.020374      0.013612      0.106202
O	      8.53243      6.19481      8.61260         0.053955      0.046134      0.080526
O	      2.09399      6.12963      6.39591        -0.389485      0.050410     -0.054542
O	      4.39307      8.27938      6.48181         0.054985     -0.107747      0.154246
O	      4.17081      6.28425      8.55439        -0.032216      0.169864     -0.027117
O	      6.29939      8.32690      8.34800        -0.071462     -0.000491     -0.109173
O	      6.42181      6.20632     10.55912         0.163985      0.044514      0.400522
O	      8.55071      8.28452     10.57980         0.012126     -0.122671     -0.012428
