# total energy = -231.94996723 eV
 
CRYSTAL
PRIMVEC
0.026164 6.237981 6.342376 
6.299420 0.021785 6.346822 
4.202498 4.164432 0.011789 
PRIMCOORD
36 1
Li	      8.36713      2.14558      6.33441        -0.038320     -0.013389     -0.043202
Li	      6.38260      4.16687      2.28573        -0.009901     -0.002799      0.038181
Li	      4.13566      0.05811      4.15974         0.006852     -0.042018     -0.023188
Li	      6.21554      2.16753      4.17647         0.048352     -0.032440     -0.052687
Li	      2.26232      2.00520      4.20291        -0.002040     -0.007659      0.003130
Li	      4.23808      2.05782      6.16369         0.014420     -0.017003     -0.083255
Li	      6.27899      4.22149     10.56427        -0.044746     -0.006689     -0.005009
Li	      4.20452      4.29019      8.53058        -0.029722      0.020523      0.028757
Li	      6.20911      6.23839      8.52005        -0.039094      0.018369      0.037895
Ti	      8.33201      6.41075     10.53909        -0.150977      0.627519     -0.098167
Ti	      6.41137      8.20749      6.45948         0.088683     -0.108302      0.518907
Mn	      4.18146      6.28564      6.37925        -0.009419      0.014112      0.126022
Cr	      2.10480      4.14143      2.16656         0.034235     -0.000282      0.016102
Cr	      6.32729      4.16260      6.32251         0.000758      0.032336     -0.230732
Fe	      6.19967      0.05874      6.26575         0.031678     -0.009967     -0.000155
Fe	      0.08804      2.08031      2.13117        -0.081991     -0.083752      0.096649
Cu	      4.27430      4.06750      4.23641         0.104746      0.092968      0.029554
Ni	      4.19520      2.06055      2.17858         0.014496     -0.027871     -0.082111
O	      2.04324      2.14176      2.15025        -0.020927      0.034287     -0.016438
O	      4.13616      4.20779      1.94421        -0.078308      0.038960     -0.103499
O	      4.23974      2.12711      4.15863        -0.012158     -0.117515      0.160466
O	      6.26331      4.15486      4.36086         0.046537      0.035443      0.204308
O	      6.28853      2.11415      6.44811        -0.019002      0.068961      0.027066
O	      8.38149      4.18297      6.44749        -0.068779     -0.005057      0.091582
O	      2.18578      4.21067      4.23136        -0.127441      0.013172     -0.054960
O	      4.11029      6.18229      4.34474        -0.059266      0.067544     -0.070179
O	      4.19154      4.22006      6.47713        -0.023242      0.091943      0.115349
O	      6.33522      6.28504      6.33955         0.119875      0.069986      0.009185
O	      6.40046      4.11066      8.39854         0.044475      0.053402     -0.021332
O	      8.50891      6.18190      8.62702         0.021119     -0.030339      0.176429
O	      2.04243      6.11914      6.22437        -0.067296     -0.044782     -0.119863
O	      4.34291      8.35141      6.34580         0.024870     -0.084643     -0.098015
O	      4.18441      6.29802      8.27524         0.032069     -0.086651     -0.022394
O	      6.30493      8.32436      8.29249         0.098297     -0.023919     -0.475869
O	      6.39990      6.26163     10.64932         0.209711     -0.012225     -0.091052
O	      8.45279      8.23229     10.57620        -0.058544     -0.522222      0.012526
