# total energy = -231.96366728 eV
 
CRYSTAL
PRIMVEC
-0.001404 6.339613 6.283270 
6.286543 0.026696 6.254710 
4.201664 4.218234 0.007513 
PRIMCOORD
36 1
Li	      0.11413      6.32190      6.16159        -0.046007      0.011305      0.011323
Li	      8.36821      8.43903     12.47422        -0.032669      0.104039     -0.000871
Li	      4.26009      8.40906      8.34578         0.005562     -0.003325     -0.021827
Li	      6.35955      8.34585     10.37860        -0.065572      0.079097      0.000028
Li	      4.20062      6.31318      2.18152        -0.010376     -0.004856      0.055526
Li	      4.24367      4.23080      4.21093         0.030705     -0.029765      0.005629
Li	      8.27675      6.50241     10.47827         0.033528      0.005163     -0.037839
Li	      8.24221      8.49912      8.42995         0.012005      0.048376     -0.055672
Li	      6.29379      6.48883      8.43274        -0.051118      0.052418     -0.081360
Ti	      2.31938      4.23370      2.17578         0.164712      0.062880     -0.119731
Ti	      6.29450      4.12164      6.43401        -0.011214     -0.136634      0.174141
Mn	      4.11283      6.39864      6.26109         0.054947     -0.085959      0.111305
Cr	      2.05316      0.01120      2.04461         0.033762      0.306973      0.011767
Cr	      6.30745      6.30914      4.19393        -0.004261     -0.064590      0.100454
Fe	      4.22759      2.11868      6.26662        -0.130312     -0.049989      0.183330
Fe	     10.36232      8.56983     10.44639         0.283159     -0.184665     -0.147014
Cu	      4.23321      6.32851     10.37816         0.002519      0.011614      0.011270
Cu	      6.24681      8.53009      6.32237         0.222281      0.004041     -0.228378
O	      2.09318      2.16151      2.20332         0.045083      0.039054      0.003400
O	      4.17292      4.22741      2.14958        -0.256553      0.023190     -0.020860
O	      4.11613      2.00993      4.30989         0.000957      0.101175     -0.267392
O	      6.36460      4.29980      4.16323        -0.140450     -0.016659      0.066550
O	      6.21257      2.25963      6.23137         0.089846      0.129014      0.025587
O	      8.29037      4.22095      6.45737        -0.049561     -0.002045      0.166707
O	      2.07754      4.14830      4.13959        -0.026855      0.008263      0.024114
O	      4.27489      6.40344      4.31007        -0.002406      0.025134     -0.071025
O	      4.28740      4.17917      6.26754         0.217954     -0.088211      0.041149
O	      6.34771      6.15616      6.23163        -0.039583     -0.163503     -0.090400
O	      6.37343      4.18836      8.31018        -0.011112      0.004648     -0.187243
O	      8.41100      6.16501      8.28786         0.010711     -0.187833      0.142088
O	      2.07188      6.47039      6.33586         0.022224      0.010886     -0.023225
O	      4.28391      8.43236      6.17567        -0.308548      0.153231      0.101298
O	      4.04666      6.38086      8.14806         0.020164     -0.001867     -0.079550
O	      6.25159      8.59255      8.26724         0.051678     -0.218013      0.106280
O	      6.22194      6.30149     10.39261         0.082726      0.085990      0.040569
O	      8.44648      8.54114     10.39156        -0.197926     -0.028577      0.049872
