# total energy = -232.43111500 eV
 
CRYSTAL
PRIMVEC
-0.002384 6.280504 6.237017 
6.322202 0.022815 6.211377 
4.219488 4.174753 0.010805 
PRIMCOORD
36 1
Li	      6.29363      0.06434      6.19217        -0.030498     -0.005090     -0.028389
Li	      6.26680      2.14758      4.19320        -0.011292      0.005918      0.012190
Li	      4.19394      6.21109      2.12909        -0.018286      0.003236     -0.018639
Li	      2.19115      4.17003      2.11007         0.025506     -0.010692      0.021210
Li	      6.31035      6.29591      4.19998         0.041845      0.040338      0.028183
Li	      4.28996      2.05819      6.18253         0.048329     -0.034887      0.051149
Li	      6.33314      4.17567      6.13558        -0.025208      0.014456      0.029133
Li	      2.16801      6.17487      4.22496         0.030610      0.010198     -0.014231
Li	      2.13235      4.23231      6.13598         0.029298     -0.002022      0.014028
Ti	      8.22034      2.10170      6.20620        -0.550836      0.018577      0.133785
Ti	      6.44814      6.29184      8.22668         0.374477     -0.076187     -0.390904
Mn	      0.11395      4.14961      4.20584         0.047111     -0.027555     -0.037085
Cr	      8.36967      4.22075      4.19771        -0.063019      0.054952      0.064307
Cr	      4.20736      4.20886      4.20731         0.005062     -0.029164      0.004285
Fe	      4.19771      2.18959      2.04385         0.076414     -0.022733     -0.039027
Fe	      4.21832      4.18056      8.22369        -0.014886     -0.089909      0.112998
Ni	      6.29391      4.20243      2.07976        -0.029503     -0.006397     -0.010041
Ni	      4.20102      6.27793      6.19452         0.058130     -0.023910     -0.010271
O	      2.23103      2.10001      1.92807        -0.134545      0.118984     -0.105594
O	      4.26278      4.11793      2.17440        -0.132703      0.161016      0.005792
O	      4.22382      2.09960      4.05407         0.027529      0.008273      0.082037
O	      6.32545      4.20582      4.10574        -0.013232      0.030460      0.112547
O	      6.40087      2.08304      6.26128         0.471738      0.028342     -0.046177
O	      8.42369      4.08370      6.15046        -0.020225     -0.076751     -0.001676
O	      2.21511      4.19359      4.16863         0.040942     -0.028562     -0.018368
O	      4.23837      6.28268      4.16257         0.021895      0.076481     -0.105537
O	      4.22837      4.22730      6.27891        -0.033096     -0.157449     -0.169633
O	      6.25941      6.21631      6.40637         0.168462      0.068927      0.383780
O	      6.23979      4.29094      8.45570         0.030295      0.041214     -0.040750
O	      8.32173      6.38987      8.31219        -0.305616     -0.161024      0.030081
O	      2.14309      6.42030      6.25579        -0.112174      0.070512     -0.152215
O	      4.21059      8.34838      6.19593        -0.045760      0.152244     -0.013801
O	      4.22035      6.29383      8.34598         0.116529      0.015825      0.115253
O	      6.32445      8.29029      8.30379        -0.032992     -0.124418      0.006047
O	      6.18243      6.17998     10.29725         0.024263     -0.015966     -0.025186
O	      8.38163      8.47676     10.39150        -0.064565     -0.027236      0.020721
