# total energy = -238.05806106 eV
 
CRYSTAL
PRIMVEC
-0.015041 6.335571 6.226038 
6.390749 0.002513 6.209037 
4.263709 4.215332 -0.001762 
PRIMCOORD
36 1
Li	     10.52902      4.29628      6.29108        -0.045041      0.023896      0.015234
Li	      8.43706      2.24465      6.28067        -0.043603      0.018739     -0.033215
Li	      4.18329      2.18888      2.09644        -0.046973     -0.015285     -0.003151
Li	      6.45917      2.15255      8.15691        -0.051490      0.026315      0.009931
Li	      2.14579      4.07471      1.98536         0.022741     -0.008473      0.012091
Li	      2.22801      2.07621      4.10111         0.043053     -0.033331     -0.000036
Li	      4.23584      4.17386      4.09798        -0.009603     -0.006871     -0.020574
Li	      6.46657      4.13637      6.27923        -0.053420     -0.001058      0.025482
Li	      6.35857      6.24779      8.26164         0.009540     -0.059823      0.004738
Ti	      1.96895      0.17226      2.08168        -0.280169      0.358380      0.194670
Ti	      8.48672      6.33851     10.23369         0.144171     -0.054517     -0.448330
Mn	      0.02990      4.18397      4.11216        -0.117541      0.029728     -0.134181
Cr	      8.52299      4.22591      4.15272        -0.043825     -0.042537     -0.067725
Cr	      8.51876      6.29741      6.22671         0.058281      0.058284      0.066053
Fe	      6.37240      2.09478      4.18036        -0.070636      0.045482     -0.046717
Fe	      6.39037      8.41878      6.28562         0.073986     -0.047919     -0.064737
Fe	      4.34038      6.28300      6.26111         0.041758     -0.061447      0.022444
Co	      4.30919      4.23867      8.29022        -0.082379     -0.032869      0.241532
O	      2.12493      2.02111      2.03620         0.012234     -0.359566      0.030888
O	      4.41482      4.19713      2.07909         0.417201      0.035030     -0.021236
O	      4.23638      1.99527      4.22813        -0.022444     -0.006104     -0.003482
O	      6.52371      4.23933      4.00343        -0.005036      0.065169     -0.213957
O	      6.22706      2.13552      6.18300        -0.041897     -0.051680      0.125329
O	      8.49804      4.30232      6.13721        -0.011157      0.011066      0.000545
O	      2.16681      4.42358      4.19269        -0.037976      0.173015     -0.004211
O	      4.07729      6.39543      4.21871        -0.083683      0.103749     -0.019051
O	      4.19350      4.21217      6.17492        -0.002432      0.014457      0.013133
O	      6.37469      6.39968      6.22326         0.069653     -0.015875     -0.035708
O	      6.34047      4.20768      8.42361        -0.537325     -0.021508      0.018005
O	      8.48257      6.35424      8.34629         0.020667      0.065610      0.269871
O	      2.21962      6.27269      6.24481         0.011028      0.021766      0.002710
O	      4.38681      8.31743      6.10719        -0.001206      0.054792     -0.028803
O	      4.20496      6.32958      8.27698         0.048148     -0.152627      0.070048
O	      6.45317      8.54795      8.26828         0.539347      0.006406     -0.047507
O	      6.41016      6.24197     10.37172         0.049280     -0.116352      0.017635
O	      8.49551      8.41194     10.44122         0.026752     -0.024043      0.052283
