# total energy = -235.37600839 eV
 
CRYSTAL
PRIMVEC
-0.013570 6.254585 6.350592 
6.231126 -0.001883 6.338952 
4.155767 4.163591 -0.002958 
PRIMCOORD
36 1
Li	      6.23416     10.35450      8.46372        -0.034972     -0.268741     -0.001410
Li	      4.18994      8.33371      8.46756         0.262871      0.042450     -0.012464
Li	      6.22410      8.34208     10.52032         0.088999     -0.133050     -0.321172
Li	      6.25231      6.23922      4.25491        -0.068328      0.051883      0.059395
Li	      8.27292      6.27033      6.33619        -0.111016      0.019757      0.004289
Li	      6.20759      4.19797      6.31615        -0.029842      0.110705     -0.031346
Li	      8.27695      6.25878     10.57736        -0.025361      0.034784      0.036393
Li	      6.23290      8.31831      6.39267        -0.004899     -0.058269      0.181023
Li	      8.23066      8.32965      8.44648        -0.219332      0.066568      0.083975
Ti	      6.17344      2.08034      8.39197         0.041973     -0.021810     -0.237633
Ti	      4.22373      4.02493      4.31213         0.007985     -0.492412     -0.110709
Mn	      2.05399      8.28946      6.33868        -0.118618      0.559746      0.028598
Cr	      0.02571      4.16535      4.24614        -0.055977      0.181726     -0.180273
Cr	      6.26696      6.36573      8.41057        -0.210718     -0.033692      0.333643
Fe	      4.06045      0.04885      4.17324         0.152589     -0.167853     -0.052101
Fe	      2.08606      4.17857      2.12474         0.041584     -0.204664     -0.138388
Fe	      4.19386      6.21194      6.41564        -0.070312      0.157508      0.044679
Cu	      0.04020      6.24172      6.35357         0.049392     -0.046755     -0.060532
O	      1.96939      2.07187      2.08028        -0.559033      0.089969     -0.624669
O	      4.17495      4.25334      2.26797         0.026349      0.426521      0.644773
O	      4.14591      2.11391      4.24292        -0.049248      0.539664      0.180321
O	      6.17821      4.16466      4.23207        -0.219517     -0.117216      0.119301
O	      6.19352      2.07690      6.44927        -0.181631     -0.229829      0.793708
O	      8.32479      4.06474      6.29192         0.296119     -0.493687     -0.106895
O	      2.10579      4.17244      4.19602         0.173229     -0.018194     -0.025159
O	      4.14800      6.24903      4.19128         0.057294      0.067271      0.017714
O	      4.14696      4.22745      6.20700        -0.094684      0.216836     -0.552211
O	      6.13713      6.23801      6.40734        -0.024491     -0.024640      0.379160
O	      6.19458      4.11956      8.52307         0.039625     -0.206977      0.313152
O	      8.36223      6.27047      8.44459        -0.036086      0.165229     -0.149987
O	      2.10301      6.37630      6.34269         0.081816      0.103329     -0.030021
O	      4.15477      8.31033      6.26240         0.277328     -0.076467     -0.327564
O	      4.19743      6.25947      8.47665         0.279819      0.099123     -0.180843
O	      6.22558      8.27063      8.46406         0.162864     -0.245299     -0.115485
O	      6.15431      6.19130     10.47729        -0.109436     -0.275792     -0.399826
O	      8.37695      8.40428     10.62045         0.183664      0.182278      0.438563
