# total energy = -236.21579093 eV
 
CRYSTAL
PRIMVEC
0.050826 6.306336 6.330446 
6.304754 0.040932 6.340234 
4.217064 4.224789 0.013414 
PRIMCOORD
36 1
Li	     10.46063      4.30805      6.34522        -0.088376      0.021946      0.011429
Li	      8.39920      2.17755      6.35158         0.011718      0.035116      0.021126
Li	      6.38158      8.35138     10.59179        -0.014695     -0.029997      0.033790
Li	     10.50514      6.32623      8.38944        -0.015930     -0.056164     -0.039875
Li	      8.46834      4.30645      8.43508         0.043875      0.051701     -0.001737
Li	      8.48688      6.29191      6.40971         0.016500     -0.048144      0.008283
Li	      6.34412      4.33012     10.53058         0.008737      0.020986     -0.039796
Li	      6.33108      8.44639      6.36345         0.000349      0.010514     -0.007039
Li	      6.41087      6.34178      8.51982         0.029205     -0.029169      0.069452
Ti	      6.40103      4.09407      6.46480         0.134864     -0.377647      0.228350
Ti	      4.27558      6.48040      6.33825         0.061406      0.367072     -0.146622
Mn	      4.23804      4.16811      4.23043        -0.007764     -0.002406      0.021021
Cr	      4.32132      6.31035     10.57772         0.052102     -0.004747      0.027369
Cr	      8.35753      6.34810     10.58568        -0.000197     -0.030485     -0.010774
Fe	      6.28113     10.53884      8.36859        -0.004267      0.048750      0.056163
Fe	      2.11723      2.22224      4.16161        -0.106425      0.002730     -0.000556
Fe	      8.40828      8.34803      8.47882         0.012178      0.075154     -0.058293
Ni	      4.28488      8.45405      8.44962         0.023064      0.020801     -0.041213
O	      2.12868      2.02242      2.20800        -0.100820      0.075900     -0.111599
O	      4.30791      4.19247      2.08410        -0.184933      0.165793     -0.063417
O	      4.13990      2.03459      4.19731         0.074504     -0.132758      0.112952
O	      6.41700      4.32572      4.23986         0.058101     -0.048018      0.016604
O	      6.30172      2.28096      6.32413         0.005243      0.342662      0.015316
O	      8.31971      4.25870      6.24920        -0.137448      0.005935      0.014027
O	      2.11313      4.22090      4.21679        -0.114854      0.127920      0.027259
O	      4.17978      6.34173      4.37126         0.033463      0.109277      0.130970
O	      4.34082      4.31129      6.41140         0.017260      0.029587      0.036989
O	      6.21354      6.28310      6.22335        -0.109545     -0.010115      0.070902
O	      6.28515      4.25203      8.31392         0.028762     -0.003292     -0.245257
O	      8.41426      6.42026      8.58913         0.043823     -0.168493     -0.020332
O	      2.27134      6.32204      6.31714         0.069933      0.028291     -0.075426
O	      4.26178      8.30650      6.41869         0.015571     -0.363178     -0.162073
O	      4.20889      6.29836      8.43220         0.059940     -0.099220     -0.009946
O	      6.40046      8.55650      8.42821         0.073682     -0.121647      0.014668
O	      6.34302      6.34144     10.59960         0.021434     -0.013061     -0.005341
O	      8.47836      8.45030     10.46844        -0.010460     -0.001597      0.122629
