# total energy = -237.69449225 eV
 
CRYSTAL
PRIMVEC
0.027594 6.447622 6.275591 
6.301349 0.016454 6.287250 
4.213156 4.318976 -0.001415 
PRIMCOORD
36 1
Li	      2.23921      8.52894      6.29155        -0.010032     -0.022815     -0.058850
Li	      2.12984      4.27582      2.37693         0.049743      0.007490     -0.046099
Li	      1.96509      2.37888      4.19760         0.013811      0.005243      0.037604
Li	      3.99414      4.48584      4.31429         0.042043      0.040404      0.028241
Li	      6.18957      4.33536      6.22099        -0.031333      0.003533     -0.055432
Li	      0.23279      4.15662      4.23819        -0.084328     -0.047511      0.033180
Li	      2.27797      6.17215      4.27885        -0.006886      0.027815      0.033925
Li	      2.13768      4.30977      6.11145        -0.019310      0.003048     -0.014186
Li	      4.19194      6.48269      6.01669        -0.003433     -0.007841     -0.007184
Ti	      8.35007      4.26418      4.28426        -0.234392     -0.332311      0.147371
Ti	      6.36269      6.23562      8.32080         0.122998     -0.300993     -0.240910
Mn	      4.13823      2.25991      2.11383         0.007602      0.000877     -0.090164
Cr	      4.24839      6.50125      2.16389        -0.057004      0.074103      0.052871
Cr	      4.17124      2.20659      6.24235        -0.053101      0.110240      0.016818
Fe	      0.13974      6.42923      6.21745        -0.038165     -0.001955      0.032001
Fe	      2.13926      6.47125      8.30463         0.019080      0.012292      0.062481
Fe	      6.37567      8.59892     10.51045         0.041471      0.080637     -0.009098
Fe	      4.17006      4.32697      8.28947         0.044302     -0.090286      0.165770
O	      2.10778      2.06748      2.08131         0.063036      0.036302      0.026200
O	      4.30309      4.46339      2.03565        -0.079154      0.001770      0.000320
O	      4.25937      2.02733      4.15949        -0.139743     -0.076494     -0.017204
O	      6.47353      4.31613      4.07900         0.253559      0.065546      0.032972
O	      6.19430      2.08957      6.35274         0.034068     -0.032200      0.124962
O	      8.48722      4.44419      6.14537        -0.000993     -0.007010     -0.223035
O	      2.11598      4.28419      4.22285         0.013741     -0.017574     -0.013373
O	      4.20378      6.49161      4.06903        -0.010944      0.019446      0.006894
O	      4.22072      4.17093      6.33038         0.027096     -0.101144     -0.234060
O	      6.36719      6.41920      6.46091        -0.007362     -0.044397      0.260183
O	      6.33997      4.35520      8.36799         0.099270      0.253561     -0.032470
O	      8.35568      6.46626      8.28190        -0.081598     -0.085843      0.036093
O	      2.09395      6.49511      6.34430         0.079117      0.029242     -0.047329
O	      4.19587      8.79280      6.47369        -0.023472     -0.019769      0.035289
O	      4.32369      6.48367      8.43391         0.025059      0.089029      0.033842
O	      6.20384      8.65606      8.38697        -0.146247      0.011919     -0.093463
O	      6.24699      6.45183     10.40313        -0.033723     -0.062162     -0.066386
O	      8.40190      8.80078     10.40074         0.125224      0.377808      0.082223
