# total energy = -222.62950520 eV
 
CRYSTAL
PRIMVEC
0.008100 6.188154 6.215979 
6.202599 0.007240 6.216714 
4.149096 4.139865 -0.009127 
PRIMCOORD
36 1
Li	      8.33099      8.24269     12.30078         0.022502     -0.028447      0.006698
Li	      6.34192      8.23017     10.27543         0.012894     -0.016491      0.014799
Li	      2.07795      2.18788      4.13736        -0.018253     -0.002467      0.019275
Li	      3.98950      4.14477      4.14100        -0.029026      0.019612      0.000560
Li	      0.04383      4.20003      4.18404        -0.008117     -0.021832      0.004237
Li	      8.21772      6.11390     10.32420        -0.031648     -0.054269      0.011404
Li	      2.00553      4.15845      6.08349        -0.002000     -0.017319     -0.055248
Li	      8.21782      8.27101      8.42796         0.006368     -0.004328     -0.014999
Li	      6.25731      6.22283      8.39224         0.014456     -0.001378     -0.006281
Ti	      4.13329      6.31834      2.23457        -0.005536      0.265417      0.247913
Ti	      4.04253      2.18396      6.13960        -0.118886      0.207089     -0.139483
Mn	      6.24716     10.27050      8.31009        -0.008830     -0.017340      0.003518
Cr	      6.22339      6.15431     12.36835         0.093970     -0.056486      0.020746
Cr	      4.15371      6.22007      6.14894        -0.008797     -0.030612     -0.034297
Ni	      4.15608      2.06231      2.11133        -0.037247     -0.004575      0.072797
Ni	      8.32568     10.26539     10.33990         0.037427      0.147268     -0.054401
Ni	      2.07361      4.12322      2.17200         0.019010     -0.015484     -0.113180
Ni	      6.25667      4.08757      6.13032        -0.015989     -0.008412     -0.053762
O	      2.09117      4.13745      4.08909        -0.085025     -0.008678      0.220454
O	      8.31390      8.41340     10.36033         0.017765     -0.273309      0.011973
O	      1.98124      1.96773      2.08941        -0.124689     -0.129364      0.016692
O	      4.25353      4.16917      2.02008         0.102759      0.071129      0.015505
O	      4.13760      1.93662      4.24509         0.000579      0.151838      0.236670
O	      6.36496      4.11894      4.03407        -0.113865     -0.012237     -0.113285
O	      6.09405      2.00144      6.31281        -0.031888     -0.079618      0.037407
O	      8.34224      4.22800      6.27423         0.072049      0.030249      0.000912
O	      4.12050      6.21496      4.11289         0.003022     -0.014465     -0.246656
O	      4.20578      4.09718      6.14661        -0.152770     -0.155349     -0.021353
O	      6.23947      6.15228      6.23694         0.127839      0.131491     -0.031172
O	      6.25262      4.02107      8.19364        -0.140782     -0.248725      0.134575
O	      8.37860      6.20057      8.19149         0.088988      0.114098     -0.042555
O	      2.08969      6.19204      6.33723        -0.028647     -0.012758      0.051840
O	      4.14109      8.23385      6.29020         0.016413      0.065249     -0.155186
O	      4.02858      6.20633      8.17945        -0.021450     -0.116937     -0.050592
O	      6.17978      8.40489      8.28947         0.144600      0.068794     -0.007606
O	      6.10846      6.18771     10.43607         0.202804      0.058648      0.012084
