# total energy = -100.39685450 eV
 
CRYSTAL
PRIMVEC
-0.000079 2.079681 2.079678 
17.105457 -0.000286 -0.000314 
0.000000 2.079680 -2.079676 
PRIMCOORD
16 1
Li	      0.09578      2.07950      2.07831         0.026289      0.000438      0.000919
Li	      1.93406      2.07939     -0.00135        -0.059838      0.000329      0.001164
Li	      6.18115      2.07867     -0.00193         0.022934      0.000470      0.000772
Li	     12.88221      2.07875      2.07813         0.009464      0.000129      0.000488
Ti	      8.57056      2.07787      2.07647        -0.698696      0.001767      0.002289
Ti	     14.96027      2.07926     -0.00067         0.509679      0.000008     -0.000755
Ni	      3.96916      2.07895      2.07811         0.171165      0.000523      0.000730
Ni	     11.01880      2.07851     -0.00218         0.001163      0.000701      0.001446
O	     12.98831      2.07885     -0.00140         0.141536     -0.001113     -0.002126
O	     14.88993      2.07921      2.07881        -0.024616     -0.001525     -0.002071
O	      8.76700      2.07808     -0.00298        -0.034743      0.000490      0.001180
O	     10.68484      2.07846      2.07747        -0.048637     -0.000799     -0.001517
O	      4.28358      2.07895     -0.00158         0.013948     -0.000973     -0.001569
O	      6.79363      2.07867      2.07771         0.636707     -0.001123     -0.002284
O	     16.76897      2.07907     -0.00168        -0.502833      0.000843      0.002867
O	      2.03314      2.07931      2.07832        -0.163521     -0.000167     -0.001533
