# total energy = -232.45471831 eV
 
CRYSTAL
PRIMVEC
-0.006651 6.479518 6.307641 
6.043456 0.019378 6.281742 
4.045790 4.319514 -0.003795 
PRIMCOORD
36 1
Li	      5.98090      0.09818      6.24850         0.010079      0.004320     -0.068468
Li	      2.07174      8.63529      6.31398         0.033874      0.006476     -0.039326
Li	      4.00498      2.18257      2.19515         0.062263      0.064104      0.064597
Li	      4.06517      6.48141     10.43503        -0.042556     -0.009059      0.040682
Li	      5.97866      2.14215      4.19742         0.000728     -0.015564     -0.018156
Li	      4.04498      6.31922      2.09136         0.002807     -0.045255      0.006503
Li	      8.07644      6.44055      6.27257         0.030387     -0.027607      0.024461
Li	      4.01468      6.50689      6.36425        -0.013172      0.008276     -0.052708
Li	      8.03905      8.74193      8.48043        -0.059347      0.046215     -0.014787
Ti	      6.09256      4.06807      6.32635         0.109480     -0.350010     -0.141283
Ti	      6.05493      8.72982      6.39699        -0.096255      0.212519      0.222750
Mn	      6.09144      6.45001      4.19659        -0.040532     -0.035926     -0.011042
Mn	      5.99343      4.36449     10.44926         0.098672      0.023237      0.017877
Cr	      8.07952      6.53294     10.43410         0.015161     -0.051319      0.070376
Cr	      5.98860      6.52665      8.33698        -0.029672      0.065191      0.040533
Co	      4.05900      4.30219      4.19738        -0.040442      0.044850     -0.015026
Cu	      2.06208      0.17342      2.05373        -0.012401      0.039614     -0.116548
Ni	      2.11123      4.32024      2.04415         0.028493     -0.020608      0.015994
O	      2.02447      2.21888      2.26656         0.029607      0.028092      0.025186
O	      4.14934      4.31398      2.26891         0.051450     -0.033681      0.077114
O	      3.93749      2.36929      4.22501         0.071487      0.051059     -0.006984
O	      5.96881      4.28446      4.37781        -0.108721     -0.056677      0.245523
O	      6.05980      2.27434      6.35380         0.011325      0.345127     -0.020709
O	      7.95976      4.32605      6.29983        -0.213716     -0.044489     -0.112307
O	      2.01058      4.42187      4.18600         0.068592      0.064335      0.090457
O	      4.07996      6.32124      4.18881         0.043532     -0.017324     -0.001200
O	      4.01313      4.33209      6.17242        -0.006204     -0.012565      0.062906
O	      6.04279      6.61026      6.24936         0.017788      0.036914      0.076361
O	      6.02493      4.47337      8.36175        -0.073854     -0.029928      0.003439
O	      8.00084      6.42289      8.45053         0.005009      0.051239     -0.032434
O	      1.99526      6.31583      6.19344        -0.001313     -0.190940     -0.125617
O	      4.13063      8.63790      6.10486         0.098406      0.001602     -0.048747
O	      3.99090      6.47866      8.42348         0.084760     -0.001874     -0.019339
O	      6.04565      8.55223      8.23984         0.000190     -0.106419     -0.220209
O	      6.08758      6.54090     10.34719        -0.064470     -0.045447     -0.002077
O	      8.18492      8.50137     10.48719        -0.071433      0.001521     -0.017793
