# total energy = -232.69140185 eV
 
CRYSTAL
PRIMVEC
0.013639 6.295807 6.328977 
6.138431 0.008833 6.333485 
4.102618 4.210402 -0.004517 
PRIMCOORD
36 1
Li	      6.19651     10.38164      8.41957        -0.020186      0.063522     -0.035054
Li	      4.23160      8.39372      8.33535         0.015417     -0.000076      0.030669
Li	      6.16912      8.42444     10.42643        -0.020404      0.006889      0.012170
Li	      6.13144      6.35953      4.45279        -0.019733      0.037788     -0.032341
Li	      8.00131      6.41446      6.33019         0.111579      0.053254     -0.035361
Li	      4.14186      8.42396      4.31481         0.034556      0.006608      0.030155
Li	      6.14140      8.19381      6.41425         0.028699      0.051495     -0.100092
Li	      4.23800      6.35176      6.32336        -0.162103     -0.049817     -0.046684
Li	      6.12225      6.42862      8.23700        -0.003088      0.027230      0.089304
Ti	      4.09168      0.19133      4.13891         0.007619      0.194646     -0.021883
Ti	      0.09882      2.10715      2.11276        -0.051724     -0.104226      0.002394
Mn	      2.11906      8.36111      6.31545         0.018198     -0.022863     -0.072709
Mn	      4.02598      4.22609      8.35435         0.041519     -0.019164     -0.036126
Cr	      4.12974      4.15480      4.24438         0.037071     -0.033183     -0.025321
Cr	      8.13588      6.30495     10.55556         0.020355      0.111938      0.075134
Co	      8.15771      4.24264      8.44603        -0.249677      0.004201     -0.265663
Ni	      4.13121     10.45658      6.35220         0.009105      0.001566      0.031958
Ni	      6.11135      4.32697      6.31325         0.016220     -0.150158     -0.021709
O	      1.99401      2.10135      1.99835        -0.077424     -0.038292     -0.160448
O	      4.06024      4.30658      2.15583         0.433443      0.113207      0.081522
O	      4.11834      2.05467      4.18997        -0.041781     -0.180205     -0.019815
O	      6.22583      4.20914      4.25753         0.010232     -0.008974     -0.173036
O	      6.24591      2.05987      6.48328        -0.023166      0.084548      0.102039
O	      8.18642      4.06956      6.34532         0.036254     -0.136746     -0.438642
O	      2.11217      4.29891      4.09177        -0.026525     -0.025901      0.692632
O	      4.03596      6.18516      4.09593         0.102613      0.063166     -0.150837
O	      4.11859      4.17555      6.22315        -0.188644      0.009606     -0.017549
O	      6.13213      6.28362      6.33989         0.006482      0.091380      0.072314
O	      6.06984      4.07728      8.44986        -0.241349     -0.094860      0.082177
O	      8.24461      6.41364      8.51348         0.041550     -0.020048      0.052993
O	      2.05282      6.44895      6.21549         0.173369      0.043858      0.096256
O	      3.98427      8.42087      6.35325        -0.048580     -0.125640      0.027353
O	      4.11250      6.20002      8.62679         0.023714      0.003168      0.130960
O	      6.28316      8.43374      8.40370         0.006550     -0.009568      0.040198
O	      6.07841      6.30234     10.63346        -0.018757      0.042401     -0.124416
O	      8.19703      8.38436     10.69703         0.018596      0.009251      0.127464
