# total energy = -233.74441710 eV
 
CRYSTAL
PRIMVEC
-0.012632 6.272391 6.508419 
6.054090 0.010693 6.484995 
4.054368 4.183518 -0.010350 
PRIMCOORD
36 1
Li	      6.08035      4.21124      2.36768         0.008771     -0.027763     -0.180287
Li	      7.99570      4.21633      4.26663         0.242094     -0.134237      0.002292
Li	      6.00412      2.21090      4.25041         0.100703     -0.093688      0.005330
Li	      8.07098      4.20852      8.64877        -0.126942      0.020943      0.089852
Li	      6.07406      6.13163      4.33445        -0.073050      0.321403      0.039887
Li	      6.05447      4.22870      6.27456         0.029349     -0.018377      0.161915
Li	      8.05529      6.27612     10.77697         0.033087     -0.066350      0.005283
Li	      6.08043      8.34322      6.48426        -0.005284      0.011419     -0.079821
Li	      6.05966      6.27170      8.77571         0.060840     -0.076704      0.073951
Ti	      8.00546      8.42670     12.83174         0.010491      0.005134     -0.252129
Ti	      4.12038      6.16636      6.50651         0.207841     -0.181085      0.148425
Mn	      4.06258      6.23842      2.23982        -0.100276      0.322857     -0.036118
Mn	      3.95566      2.10111      6.39120        -0.039933      0.053914      0.247731
Cr	      0.04151      6.24183      6.44009         0.075071     -0.107015     -0.276500
Cr	      4.04039      2.11731      2.22068         0.036794      0.017551     -0.480855
Co	      0.20665      4.23465      4.29158        -1.355965      0.027690      0.045592
Co	      7.95619      8.37272      8.74753         0.323005     -0.132613      0.063846
Cu	      4.04536      4.16017      4.31768        -0.406947      0.074542      0.011009
O	      5.96554      4.19030      4.34206        -0.221502      0.015220     -0.103010
O	      1.98565      2.13622      1.96174         0.098508     -0.080210      0.013225
O	      4.06603      4.20376      1.94964         0.028020     -0.052189     -0.003441
O	      3.99679      2.17106      4.18213         0.012113      0.198454      0.190333
O	      6.11531      2.00035      6.42547         0.210761      0.070073     -0.102660
O	      8.13604      4.08771      6.42637        -0.034652     -0.077139     -0.076414
O	      2.01047      4.16541      4.34120         1.184358      0.162189      0.102358
O	      4.04486      6.27261      4.50879         0.109870     -0.306543     -0.014935
O	      4.01106      4.29401      6.70838         0.052449      0.205414     -0.031960
O	      5.95988      6.28859      6.52484        -0.342136     -0.084518     -0.032861
O	      5.92932      4.05936      8.80633        -0.162949     -0.260713     -0.390195
O	      8.19833      6.31115      8.62751        -0.010309      0.032996      0.007260
O	      2.06080      6.41231      6.46083         0.033890      0.091108      0.025550
O	      4.01490      8.37029      6.59497        -0.005997      0.045994      0.387945
O	      4.02874      6.35764      8.53610        -0.033974      0.105113      0.108331
O	      6.12378      8.35619      8.73859        -0.114525      0.047926      0.009446
O	      6.07435      6.18189     10.94308         0.185997     -0.170902      0.211536
O	      8.18797      8.38521     10.92691        -0.009570      0.040105      0.110091
