# total energy = -235.13005051 eV
 
CRYSTAL
PRIMVEC
0.014350 6.289467 6.378839 
6.114221 0.007791 6.384901 
4.078404 4.199961 0.002370 
PRIMCOORD
36 1
Li	      2.17856      8.40674      6.35198         0.031932      0.025111      0.013661
Li	      4.02665      2.18629      2.11979         0.004437      0.060685     -0.004534
Li	      4.10936      6.31729     10.63114        -0.023664     -0.035349     -0.010568
Li	      4.06188      6.26342      2.26702        -0.003645      0.035889      0.061579
Li	      2.14001      4.15887      2.22683         0.014362     -0.040377      0.085658
Li	      4.02420      4.24917      4.18745         0.015568      0.062853     -0.019742
Li	      4.07756      2.10143      6.34370        -0.005392     -0.032439      0.009400
Li	      4.12105      8.27669      4.37269         0.000264     -0.044192     -0.015232
Li	      4.08634      6.37808      6.23067        -0.001827      0.000713     -0.073891
Ti	      1.96811      0.17499      2.06299        -0.007980      0.280504     -0.059781
Ti	      6.21305      4.10990      6.34968         0.213860     -0.098647     -0.037713
Mn	      6.00767      2.07214      4.27413        -0.037432      0.206958     -0.020818
Mn	      8.16716      8.36838      8.50683         0.083803     -0.074700      0.049207
Cr	      2.03618      4.16712      6.32582         0.083137      0.024998     -0.188330
Cr	      6.08851      6.28606      8.50764         0.054127     -0.033276     -0.033867
Co	      2.03161      2.14557      4.25393         0.002853     -0.064360     -0.049047
Co	     10.10819      4.18159      6.40978        -0.013683     -0.017814      0.087364
Ni	      2.12886      6.27269      4.23785         0.082318     -0.065923      0.081163
O	      2.08564      1.97090      2.11829        -0.035077     -0.237931     -0.030827
O	      4.20650      4.20032      2.13015         0.104646     -0.001331     -0.130700
O	      4.10068      2.08132      4.24218         0.084374     -0.021351     -0.013047
O	      6.09227      4.13355      4.28875         0.022526     -0.075226      0.050587
O	      6.14517      2.23943      6.40292         0.018167      0.034006      0.016091
O	      8.05100      4.21792      6.41777        -0.210358     -0.011176      0.035688
O	      2.07473      4.20768      4.35076        -0.040221      0.011430      0.049797
O	      4.13123      6.30151      4.25070         0.036334     -0.045188      0.025149
O	      4.11666      4.17816      6.57210         0.024611     -0.014580     -0.113086
O	      6.11568      6.28892      6.47528        -0.012207     -0.015505      0.062219
O	      6.00713      4.28944      8.40371         0.104579     -0.024110     -0.045377
O	      8.08909      6.44338      8.54300        -0.065587     -0.130363     -0.151646
O	      2.05546      6.21668      6.48593        -0.032817      0.048020      0.152246
O	      4.16400      8.45074      6.37573        -0.093562      0.073843      0.061200
O	      4.04193      6.10029      8.54401        -0.054751      0.151569     -0.030960
O	      6.22140      8.34829      8.40329        -0.185193      0.041620     -0.025461
O	      6.12545      6.41020     10.53650        -0.136121     -0.122306      0.087845
O	      8.04457      8.34977     10.43913        -0.022379      0.147945      0.125775
