# total energy = -236.01151896 eV
 
CRYSTAL
PRIMVEC
-0.001473 6.311227 6.321729 
6.269372 -0.019705 6.340123 
4.172408 4.212786 -0.006140 
PRIMCOORD
36 1
Li	      6.42866     10.45946      8.56063         0.053177     -0.025553      0.014273
Li	      4.21346      2.01725      2.24454        -0.003316      0.017039     -0.026593
Li	      4.09075      0.11616      4.12368        -0.031727      0.070539      0.034650
Li	      6.15509      2.21393      4.15157         0.042732      0.006288      0.005383
Li	      4.17965      6.29770      2.12757        -0.102844      0.007696     -0.029884
Li	      2.16128      2.02427      4.21118         0.042776      0.016969      0.015236
Li	      6.37066      8.36300      6.44393         0.057654      0.010740      0.011757
Li	      4.23565      6.24792      6.37589        -0.063037      0.024624      0.016918
Li	      4.13423      4.25511      8.37349         0.035308     -0.047463      0.003130
Ti	      0.12977      6.29216      6.32571         0.327597      0.080505      0.153897
Ti	      2.09730      4.16432      2.14914         0.090271     -0.075683      0.147726
Mn	      6.21614      4.26496      6.24269        -0.096049     -0.051920     -0.080627
Mn	      4.13694      8.31199      4.20309        -0.183934     -0.054942      0.030315
Cr	      2.08030      2.09015      0.00847         0.059925     -0.063955      0.003320
Cr	      6.17138      6.43611      8.40559         0.020257      0.257999     -0.248866
Co	      4.20881      4.19101      4.19344        -0.010274      0.026917      0.057030
Co	      4.14611      2.16148      6.22110         0.019415     -0.092078      0.175170
Co	      8.34964      6.28222     10.53733         0.022058     -0.063851      0.022514
O	      2.03614      2.25874      2.01900        -0.003162      0.269344      0.011221
O	      4.02981      4.27255      1.97821        -0.172104     -0.059176     -0.099030
O	      4.14581      2.18743      4.24410         0.024483      0.043369      0.444770
O	      6.25502      4.24155      4.32078        -0.016467      0.027217     -0.002346
O	      6.32200      1.92741      6.28067        -0.033747     -0.236772     -0.058811
O	      8.31889      4.10892      6.37229         0.055380     -0.015316      0.014964
O	      1.98696      4.21531      4.10068         0.003640     -0.037501     -0.353288
O	      4.03359      6.37379      4.17381         0.257930     -0.087969     -0.021732
O	      4.29081      4.22501      6.30326         0.043205     -0.113416     -0.092401
O	      6.26309      6.39216      6.45455        -0.042401      0.024748      0.125629
O	      6.33068      4.28420      8.28761         0.073697      0.057555      0.032750
O	      8.20761      6.15088      8.35897        -0.058169      0.103152     -0.517694
O	      2.00421      6.35970      6.41771        -0.397300      0.000194      0.155111
O	      4.08567      8.58047      6.37238         0.016796      0.150179     -0.085449
O	      4.34774      6.27548      8.46643         0.233139      0.040228      0.080136
O	      6.32185      8.24076      8.49472        -0.049911     -0.240565     -0.008721
O	      6.34463      6.13240     10.58981        -0.237600     -0.044060     -0.011496
O	      8.47173      8.28335     10.66992         0.022603      0.074917      0.081037
