# total energy = -229.24693116 eV
 
CRYSTAL
PRIMVEC
-0.028274 6.376404 6.171859 
6.184981 -0.018603 6.161749 
4.127860 4.248345 -0.016814 
PRIMCOORD
36 1
Li	      4.14659      8.40847      8.22097         0.012518     -0.089715     -0.037221
Li	      4.17725      6.25271     10.19790        -0.030878      0.001870     -0.054062
Li	     10.14945      6.32190      8.26376         0.008024      0.048610      0.027111
Li	      8.22253      4.46322      8.25582        -0.027468      0.033700      0.074220
Li	     10.16971      8.53966     10.23176         0.072495     -0.004942      0.016333
Li	      8.20599      6.49161     10.09501         0.050602     -0.016506      0.044003
Li	      4.08939      6.42003      6.19479        -0.019612     -0.001121     -0.016986
Li	      8.22852      8.45765      8.36026         0.007749      0.020205     -0.074085
Li	      6.21309      6.31438      8.41910        -0.062910     -0.016056      0.002442
Ti	      1.99270      2.18390      3.93653        -0.304066      0.162357     -0.001317
Ti	      6.18436      4.21291      6.34100        -0.015714      0.127572      0.699507
Mn	      4.09383     10.58281      6.14625        -0.415049      0.397376     -0.078954
Mn	      2.11280      6.31962      8.20895         0.457589     -0.089285      0.025078
Cr	      8.23177      6.34833      6.21387        -0.201482      0.435785     -0.123341
Cr	      6.16345      8.46747      6.16813        -0.071668     -0.058282      0.020661
Cu	      2.14445      8.47344      6.12904        -0.006367     -0.043572      0.082028
Ni	      6.18935      8.41579     10.23952        -0.090104      0.097402     -0.101022
Ni	      4.10698      4.24603      3.99865        -0.052056      0.037734      0.079751
O	      8.18858      8.46405     10.40518         0.170700      0.048662     -0.023409
O	      2.10456      1.95773      2.02493        -0.056219     -0.033331      0.143200
O	      4.26130      4.25583      1.92961        -0.094391      0.041442      0.022225
O	      4.04923      2.16515      4.15062        -0.050865     -0.107824      0.061626
O	      6.16785      4.29838      4.00633         0.134446      0.058170     -0.056950
O	      6.13832      2.22291      6.14559        -0.051100      0.243533      0.151924
O	      8.16196      4.33701      6.18725        -0.564244      0.279993      0.063039
O	      2.07151      4.09990      4.13765        -0.141673     -0.245251     -0.032323
O	      4.26806      6.31128      4.08671         0.274778      0.092053     -0.089676
O	      4.15059      4.16031      6.10070         0.130031     -0.157452      0.026168
O	      6.20083      6.32638      6.06015         0.136860     -0.094790     -0.083291
O	      6.15010      4.26484      8.11389         0.068044     -0.033640     -0.671341
O	      8.19704      6.38704      8.13933         0.028436      0.021266      0.041574
O	      2.00192      6.20984      6.28226         0.871979     -0.077790      0.115448
O	      4.18655      8.61521      6.14544         0.043004     -1.018109     -0.049660
O	      3.96168      6.35506      8.20248        -0.212893     -0.053626     -0.004325
O	      6.18207      8.63760      8.17606        -0.016633      0.080009     -0.091496
O	      6.14981      6.40532     10.43893         0.018138     -0.086451     -0.106879
