# total energy = -229.50615382 eV
 
CRYSTAL
PRIMVEC
0.026369 6.132470 6.575849 
6.185319 0.023707 6.576958 
4.122160 4.088138 0.017976 
PRIMCOORD
36 1
Li	      2.05970      2.06855      0.13590         0.018829     -0.012773      0.041697
Li	      4.14625      2.01817      2.37690         0.078047     -0.069530      0.029472
Li	      4.09825      0.09319      4.32338        -0.016553      0.005824     -0.010147
Li	      2.12985      2.08083      4.35056         0.005099     -0.053719      0.008085
Li	      4.13641      4.00879      4.39020        -0.000044      0.031138      0.012659
Li	      4.07725      2.05055      6.38288        -0.021556      0.002057     -0.026197
Li	      2.09314      6.10721      4.44023         0.001277      0.007951      0.008035
Li	      2.12166      4.03759      6.52967        -0.022364     -0.014349     -0.027405
Li	      6.11292      6.14052      8.68459        -0.029131      0.128879     -0.057551
Ti	      4.09773      6.22222      6.55914         0.004969      0.171619     -0.177463
Ti	      8.14982      8.11286      8.81559        -0.323781      0.040074      0.243690
Mn	      2.10437      4.10385      2.21869         0.033866      0.003778      0.005349
Mn	      6.22667      4.14548     10.96356         0.012086      0.014951      0.052277
Cr	      0.07412      6.13601      6.58245        -0.018208     -0.227747      0.030763
Cr	      6.20622      4.09506      6.52903         0.125033     -0.052172      0.271324
Cu	      2.06598      0.06371      2.23183         0.095876     -0.099500      0.060358
Cu	      6.11057      2.04926      4.42063        -0.003470     -0.119682     -0.143257
Cu	      0.03800      2.06355      2.21225        -0.084212     -0.065024     -0.064432
O	      6.20029      4.01380      4.55780         0.029406      0.098744     -0.159578
O	      1.99707      2.14421      2.23238         0.009868      0.048300      0.014026
O	      4.23955      4.18634      2.07616        -0.199452     -0.019686      0.003530
O	      4.17081      2.05017      4.36808        -0.081603      0.001866     -0.014054
O	      6.22814      2.03326      6.37503         0.026814      0.193693      0.344849
O	      8.28630      4.11319      6.81410        -0.032768      0.010325      0.017292
O	      1.97262      4.12689      4.16527         0.126552     -0.021001     -0.010687
O	      4.12276      6.25742      4.62436        -0.007233     -0.090862      0.149466
O	      4.17294      4.17133      6.70508        -0.036084      0.003680      0.036424
O	      6.05906      6.07497      6.61815        -0.077630      0.055265     -0.025254
O	      6.11505      4.07972      8.62323         0.036887      0.092872     -0.093370
O	      8.33072      6.16793      8.75657        -0.109786      0.116361      0.005018
O	      2.11477      6.12107      6.56447         0.103905      0.013252     -0.052787
O	      4.17066      8.17028      6.64407        -0.025080     -0.224569     -0.001549
O	      4.06399      6.04569      8.63959         0.200227     -0.003369     -0.025903
O	      6.27363      8.13374      8.90884         0.320082     -0.148077     -0.145257
O	      6.20127      6.07276     11.16072        -0.013025      0.208347     -0.118848
O	      8.38980      8.21667     10.72419        -0.126841     -0.026915     -0.180574
