# total energy = -233.43371643 eV
 
CRYSTAL
PRIMVEC
-0.004626 6.603643 6.227407 
6.105797 0.008284 6.215635 
4.078946 4.403097 -0.003948 
PRIMCOORD
36 1
Li	      8.09177      2.28779      6.17359        -0.008026      0.026146      0.007692
Li	      6.11808      4.39647      2.22557         0.042527     -0.000067     -0.029585
Li	      7.98580      4.43151      4.24181         0.032737      0.010607     -0.051046
Li	      6.13044      2.38230      4.16620         0.034290      0.008832      0.011207
Li	      6.15526      6.46109      4.20793         0.050947     -0.000620      0.030307
Li	      8.19803      6.45231      6.12135        -0.021740     -0.013825     -0.024674
Li	      6.17782      4.44062      6.10490        -0.063740      0.050701      0.010717
Li	      8.15661      6.68401     10.32808        -0.068548      0.023688     -0.011344
Li	      6.09564      8.72390      6.25135         0.040496     -0.057016     -0.009824
Ti	      6.12165      4.56689     10.45596        -0.053271      0.283164      0.125743
Ti	      3.91343      6.52940      6.21364        -0.199840     -0.095901      0.174858
Mn	      0.04373      2.16962      2.05435        -0.000229     -0.026964      0.011000
Mn	      6.12892      6.62885      8.24235         0.025086     -0.018190      0.019319
Cr	      4.07317      2.21229      2.11977        -0.022376     -0.008280     -0.014824
Cr	      4.09932      4.31199      4.22902         0.035181     -0.013879     -0.055603
Fe	      8.17681      4.39440      8.17592        -0.012340      0.033353      0.127770
Cu	      6.17285      0.18090      6.12781         0.090503      0.018361     -0.136560
Cu	      8.10617      8.79270      8.28887        -0.088224      0.040066     -0.074243
O	      2.02851      2.37253      2.07609        -0.051026     -0.105247     -0.053759
O	      4.08734      4.27077      2.22155        -0.004460     -0.080185      0.146583
O	      4.06777      2.33108      4.09011        -0.013117      0.054430     -0.004246
O	      6.02253      4.38247      4.18972         0.007227      0.039594      0.059734
O	      6.14108      2.14319      6.36761         0.012405      0.086962      0.027202
O	      8.29809      4.42235      6.24491        -0.044329     -0.027106     -0.102074
O	      1.95330      4.38646      4.08524        -0.032152      0.000830      0.027192
O	      4.08593      6.57172      4.17672        -0.024876     -0.009855      0.078738
O	      4.00770      4.60547      6.26387        -0.030658      0.141241     -0.088265
O	      5.97227      6.60897      6.34990        -0.060210      0.002190     -0.078622
O	      6.11267      4.49613      8.33870         0.080657     -0.020468      0.016052
O	      8.27302      6.43336      8.26858         0.038212     -0.069040     -0.017506
O	      2.04180      6.62899      6.18295         0.260413      0.021585      0.005333
O	      4.05647      8.73305      6.15596         0.008148     -0.140207     -0.165730
O	      3.98180      6.81678      8.16802        -0.005855      0.148716     -0.088558
O	      6.09027      8.60974      8.30451        -0.059269      0.020264     -0.000948
O	      6.12155      6.44418     10.20847        -0.027553     -0.304511      0.016791
O	      8.29840      8.77641     10.22542         0.133012     -0.019366      0.111170
