# total energy = -227.59133651 eV
 
CRYSTAL
PRIMVEC
0.020555 6.347881 6.137910 
6.290632 0.011681 6.146998 
4.201888 4.246174 -0.000397 
PRIMCOORD
36 1
Li	      4.27172     10.54081      6.21251         0.006950      0.049304      0.119137
Li	      4.21551      2.28790      2.21296         0.031276      0.012942      0.079012
Li	      4.28120      6.39928     10.10261        -0.076710     -0.035153      0.015070
Li	      6.25510      8.44917     10.16506         0.082948      0.092272      0.007631
Li	      4.20105      6.22255      2.15988        -0.005655     -0.041236     -0.044319
Li	      2.31834      4.22725      2.16906         0.134345     -0.012467      0.031113
Li	      2.09284      2.09506      4.02235         0.028308     -0.008174      0.031466
Li	      4.24817      4.20690      3.95216        -0.042790     -0.035456      0.103744
Li	      6.27469      6.34508      8.27892        -0.031196      0.058657     -0.140430
Ti	      2.10083      2.12985      0.10903        -0.500610      0.098796      0.100940
Ti	      8.52540      6.15325      6.09202         0.008799     -0.058637     -0.217355
Mn	      6.28356      4.27136      6.08642         0.047781     -0.147369     -0.527391
Mn	      6.25531      8.46357      6.14598         0.216548      0.030839     -0.107084
Cr	      4.20317      6.38508      6.12071         0.101801     -0.376404      0.387182
Cr	      8.38946      8.50669      8.21328        -0.349137     -0.058120      0.110518
Ni	      6.22570      4.24200      2.17822        -0.027611      0.021612      0.039527
Ni	      6.31391      4.26886     10.16279         0.036553      0.556312     -0.575870
Ni	      8.36946      6.36034     10.14388         0.043042     -0.013103     -0.019531
O	      4.26329      4.24803      2.05956        -0.119607     -0.004758     -0.053652
O	      2.09984      2.13378      1.91190         0.081746      0.114387     -0.363170
O	      4.21180      2.11387      4.29282         0.031556     -0.048789      0.316628
O	      6.28616      4.26889      4.19913         0.006359      0.002954      0.334246
O	      6.32971      2.18053      6.09432        -0.024177      0.077169      0.085544
O	      8.43581      4.25341      6.17970         0.132092      0.069855     -0.029212
O	      2.01042      4.28554      4.21142         0.376555     -0.116315      0.129117
O	      4.15363      6.53321      4.14718         0.076094     -0.181088     -0.103567
O	      4.09811      4.30086      6.17035        -0.104407      0.037109     -0.094726
O	      6.28519      6.31840      6.13491        -0.004339     -0.105639      0.009942
O	      6.16498      4.26283      8.06348         0.275529     -0.020371      0.650750
O	      8.40924      6.47876      8.04293        -0.034545     -0.037878     -0.199853
O	      2.18246      6.50766      6.12785        -0.005329      0.158686     -0.002413
O	      4.15868      8.39473      6.14652         0.120329      0.085781     -0.287580
O	      4.11392      6.25473      8.11986         0.177578      0.100958     -0.121855
O	      6.36067      8.50004      8.07743        -0.079873     -0.143522      0.000919
O	      6.36827      6.20310     10.23555        -0.197420     -0.188060      0.025961
O	      8.48991      8.46746     10.23085        -0.412784      0.064908      0.309562
