# total energy = -240.95033362 eV
 
CRYSTAL
PRIMVEC
-0.023402 6.346171 6.193530 
6.264423 -0.022873 6.192828 
4.167814 4.221766 -0.006687 
PRIMCOORD
36 1
Li	      4.12470      2.10901      2.18796        -0.041432      0.032269     -0.063942
Li	      4.05229      0.18932      4.11057        -0.019896      0.028021      0.011706
Li	      6.09538      2.18839      4.15320         0.040901     -0.021392      0.023088
Li	      2.08571      4.14606      2.18719        -0.032501     -0.048263     -0.071051
Li	      2.17378      2.15545      4.07747        -0.054208      0.016496     -0.027651
Li	      4.12063      2.10159      6.07527        -0.004096      0.033272      0.058154
Li	      0.19831      4.19027      4.09801         0.039361      0.000536      0.025199
Li	      2.11052      6.16322      4.13350        -0.005240      0.009908      0.005126
Li	      2.11017      4.20113      6.07692         0.021242     -0.030341      0.039044
Ti	     10.32780     10.46144     12.26460        -0.204514     -0.019486     -0.076518
Ti	      6.33998      6.45179      8.32291         0.088406      0.073686      0.030329
Mn	      4.09801      4.10081      4.14250         0.112177      0.094712      0.087271
V	      8.31050      8.44321     12.24972        -0.080070      0.073328      0.017248
V	      4.17801      6.36925      6.13996         0.033809     -0.127024     -0.077440
V	      8.33431      8.46127      8.39389         0.155482     -0.015134     -0.022894
Cr	      4.15907      6.31797      2.07020        -0.036421      0.098457     -0.012688
Co	      6.26831      4.21767      6.14043        -0.132220      0.119888      0.222365
Ni	      6.26149      4.24672      2.11904         0.067061     -0.047339     -0.119388
O	      1.95923      2.08337      1.91612         0.015150      0.049658      0.072896
O	      4.20553      4.31038      1.88461        -0.084718     -0.028093     -0.039711
O	      4.12796      2.20085      4.12823        -0.001326     -0.068810     -0.020554
O	      6.11921      4.19426      4.13020        -0.028622     -0.034526      0.514510
O	      6.25608      1.95774      6.24145        -0.023844      0.052378     -0.030882
O	      8.43359      4.13699      6.14712        -0.034232     -0.053664     -0.064624
O	      2.20114      4.17896      4.12654        -0.083547     -0.012371      0.019601
O	      4.16519      6.19044      4.13610         0.018253     -0.023761     -0.002271
O	      4.18169      4.31794      6.35355         0.269019      0.018718     -0.069266
O	      6.16671      6.34238      6.38395         0.032754     -0.107822      0.090581
O	      6.20657      4.18037      8.26556         0.043798     -0.017482     -0.486618
O	      8.27595      6.35694      8.26831        -0.122837     -0.013058      0.049776
O	      2.09147      6.42522      6.21412        -0.003238     -0.069912     -0.083243
O	      4.14273      8.55048      6.14947         0.068374      0.101330      0.014470
O	      4.23356      6.33849      8.22353         0.080219      0.062116      0.028135
O	      6.31015      8.35283      8.29356        -0.069124     -0.171012      0.009121
O	      6.26666      6.31283     10.32140         0.003966      0.032372     -0.018247
O	      8.34172      8.43195     10.32391        -0.027886      0.012349     -0.031630
