# total energy = -244.04088558 eV
 
CRYSTAL
PRIMVEC
-0.014723 6.359388 6.314760 
6.315189 -0.008813 6.308824 
4.189765 4.215411 0.014622 
PRIMCOORD
36 1
Li	      4.16640      4.20912      0.15656        -0.030425      0.003725     -0.033644
Li	      4.12170      2.19545      2.06473         0.006022     -0.028395     -0.024624
Li	      8.31066      4.23566      4.26467         0.038345      0.031478      0.028287
Li	      6.25449      2.21009      4.22855        -0.079669     -0.008059      0.011304
Li	      0.08058      2.01900      2.07905        -0.033573     -0.003254      0.020310
Li	      2.21293      4.10320      2.05206         0.016288     -0.047109      0.034769
Li	      6.35891      4.20693      6.25106         0.006653     -0.012132      0.011218
Li	      6.25605      8.47042      6.34625         0.016892     -0.015829     -0.050505
Li	      4.14763      6.39048      6.31723        -0.038413      0.027554     -0.044383
Ti	      4.19227      8.47360      4.35349         0.156176      0.019826      0.183634
Ti	      4.22141      4.29012      8.28575         0.208089      0.012775     -0.306905
Mn	      6.30968      6.28879      4.21269         0.009673      0.041608      0.209979
V	      4.35148      1.96913      6.27767         0.125583     -0.088910     -0.080873
V	      2.08147      6.35331      4.29418         0.024081     -0.114094     -0.057495
V	      6.26931      6.40100      8.38035        -0.010552     -0.070968      0.006044
Cr	      6.23845      4.22807      2.08390        -0.001592     -0.208797      0.006966
Co	      8.35643      2.18513      6.33026        -0.134910      0.096405      0.204620
Co	      4.21342      4.18901      4.18244         0.056127     -0.105464     -0.145116
O	      2.10335      1.99332      2.09143         0.000419      0.056172     -0.416141
O	      4.27241      4.17466      2.16021         0.040807      0.064335      0.601294
O	      4.23481      2.07272      4.37796         0.081156     -0.048254      0.044202
O	      6.27345      4.18701      4.09017        -0.353151     -0.061016     -0.057244
O	      6.16847      2.13523      6.36020        -0.109163     -0.018451     -0.010578
O	      8.38930      4.27692      6.34641         0.034068      0.066072     -0.005055
O	      1.98173      4.26263      4.20785         0.135230      0.111423      0.024942
O	      4.09284      6.45389      4.23490         0.027597      0.148566     -0.006595
O	      4.22271      4.13418      6.38885         0.020084      0.065893     -0.006262
O	      6.48749      6.32253      6.43410        -0.009972      0.018021      0.013673
O	      6.16973      4.33842      8.50721        -0.156272      0.029927     -0.003426
O	      8.36007      6.44843      8.47177         0.037294      0.092358     -0.029022
O	      2.04653      6.44162      6.27851        -0.041181     -0.107860      0.071013
O	      4.14669      8.47753      6.19663         0.080328      0.043625     -0.311479
O	      4.15948      6.21883      8.35314        -0.059243     -0.091796     -0.013346
O	      6.40847      8.43407      8.42918         0.030970      0.155441     -0.037646
O	      6.37134      6.23171     10.42197        -0.066527     -0.066741     -0.014985
O	      8.49045      8.42812     10.43632        -0.027239      0.011924      0.183068
