# total energy = -238.31993545 eV
 
CRYSTAL
PRIMVEC
-0.036770 6.438388 6.265318 
6.211796 0.005064 6.223578 
4.155785 4.278970 -0.011190 
PRIMCOORD
36 1
Li	      4.16961     10.61430      6.33635        -0.005514      0.013948     -0.017282
Li	      2.06168      6.37483      8.29618         0.051514     -0.020362      0.018307
Li	      4.14191      8.57130      8.31696        -0.027395     -0.011767      0.044658
Li	      4.16538      6.41308     10.29112         0.026895     -0.021182      0.036509
Li	      4.17376      6.26892      2.11928        -0.043892     -0.031391     -0.037651
Li	      4.14386      8.57762      4.20329        -0.011482      0.026689     -0.011474
Li	      6.10018      8.66857      6.29329         0.004994      0.021445      0.000714
Li	      4.11092      6.47293      6.33484         0.016588      0.034521     -0.065559
Li	      4.07147      4.43785      8.32733        -0.005496     -0.076978     -0.007313
Ti	      2.21038      8.47521      6.37406         0.340018     -0.131685      0.090193
Ti	      6.15395      4.28029      6.24583        -0.185661     -0.026107      0.153331
Mn	      6.10658      6.49603      8.33024         0.029550      0.073607      0.000876
V	      6.17292      8.60900     10.34512        -0.022741      0.001866      0.053128
V	      8.30020      6.36895      6.26502        -0.001687      0.024753      0.053096
V	      2.10881      6.44934      4.17292         0.083722     -0.016561     -0.121228
Cr	      2.00455      2.15150      4.07047        -0.000332      0.000450     -0.034733
Cu	      2.09985      4.25627      2.10662        -0.063980      0.029868     -0.105853
Cu	      4.10234      4.31662      4.07647         0.048106     -0.003435      0.094517
O	      2.03869      2.00798      2.02364         0.014726     -0.107722     -0.119613
O	      4.02485      4.27869      2.15455         0.161490     -0.059288     -0.204383
O	      4.13230      2.05467      4.28876         0.000695     -0.163238     -0.023948
O	      6.22444      4.34835      4.20662         0.045741     -0.012105      0.074141
O	      6.23757      2.28404      6.19858         0.014177      0.118283     -0.006984
O	      8.21636      4.26679      6.25286        -0.043739      0.007160     -0.069076
O	      2.03522      4.22753      4.12500        -0.097050     -0.042492      0.232975
O	      4.13236      6.52024      4.10447         0.069329      0.165182      0.011053
O	      4.22696      4.14560      6.14741         0.113638      0.053709      0.082180
O	      6.22164      6.30875      6.07644        -0.001807     -0.077101      0.005670
O	      6.26451      4.43702      8.13964        -0.122320      0.003032     -0.076525
O	      8.13986      6.57245      8.27497        -0.045639      0.105255     -0.002202
O	      2.08759      6.54969      6.19566        -0.049807      0.119217      0.024233
O	      4.00266      8.61972      6.28244        -0.304988     -0.044075     -0.018211
O	      4.25598      6.39090      8.31756         0.008633      0.073337      0.006421
O	      6.15288      8.52795      8.42542         0.024097     -0.004812     -0.063431
O	      6.32378      6.54754     10.43340        -0.037507     -0.042348     -0.031851
O	      8.17083      8.55252     10.56554         0.017124      0.020326      0.035313
