# total energy = -244.76799146 eV
 
CRYSTAL
PRIMVEC
0.019339 6.340479 6.279022 
6.378256 0.022029 6.276178 
4.259796 4.232741 0.007094 
PRIMCOORD
36 1
Li	      2.16708      0.09012      2.09323         0.051719      0.061154      0.012606
Li	      4.18352      2.11313      2.11044        -0.001023     -0.019518      0.002609
Li	      6.40081      2.22709      8.43041         0.003031      0.028839      0.050048
Li	      6.28329      6.37943      4.16320        -0.026038      0.013157     -0.001794
Li	      8.51448      6.39952      6.34528         0.002025      0.028445     -0.019436
Li	      6.26971      4.30293      6.33270        -0.081302      0.026458     -0.006013
Li	      4.27731      8.32944      4.18013        -0.055576     -0.051760      0.014186
Li	      4.35955      6.28868      6.21563         0.019872     -0.015229     -0.026101
Li	      4.33467      4.18014      8.30070        -0.001010     -0.033891      0.014325
Ti	      4.24849      4.23845      0.15411         0.035012     -0.015943      0.051434
Ti	      4.14087      0.07024      4.08229        -0.069823     -0.044000     -0.326058
Mn	      2.22541      8.39351      6.34555         0.038482     -0.091211     -0.039535
V	      6.40344      8.46739     10.40834         0.024754      0.018342     -0.023433
V	      6.45095      8.41316      6.30928        -0.020782      0.035210     -0.057190
V	      6.37704      6.31169      8.34452         0.098830      0.034841      0.146225
Cr	      4.29754      4.28444      4.19489        -0.011115      0.057194     -0.008200
Fe	      2.03142      4.17480      2.16534         0.030961      0.054188     -0.024384
Co	      2.26885      6.36737      4.13160        -0.484511     -0.189166     -0.060662
O	      2.13112      2.24691      2.11971         0.004232     -0.120417      0.006856
O	      4.22844      4.26145      2.04601         0.020621     -0.012682     -0.186227
O	      4.36340      2.08664      4.18455        -0.043571     -0.021719      0.010011
O	      6.43359      4.23551      4.20616         0.080960      0.036333      0.007497
O	      6.40774      1.96873      6.15450        -0.016605     -0.099911      0.073108
O	      8.65812      4.26935      6.22970         0.056789      0.070110      0.054854
O	      2.29564      4.20410      4.17705        -0.028163     -0.005861     -0.001844
O	      4.25379      6.25167      4.20437        -0.116139     -0.062125     -0.089862
O	      4.17060      4.24653      6.16603         0.092144     -0.029986      0.052083
O	      6.35070      6.45482      6.38696         0.027579     -0.120123     -0.063982
O	      6.44384      4.31940      8.36645        -0.077261     -0.015804     -0.004891
O	      8.44764      6.23929      8.40863         0.256179      0.114535      0.357461
O	      1.99812      6.25259      6.23065         0.191883      0.083915     -0.316669
O	      4.38231      8.61837      6.25591        -0.040743      0.118445      0.023661
O	      4.25096      6.37796      8.50789        -0.008862      0.028839      0.289084
O	      6.42634      8.36948      8.42170        -0.000158     -0.014236      0.007667
O	      6.26476      6.38311     10.45803         0.025260      0.009100      0.112162
O	      8.44554      8.62887     10.46152         0.022349      0.144477     -0.029596
