# total energy = -242.97875921 eV
 
CRYSTAL
PRIMVEC
0.006410 6.335550 6.425050 
6.244800 0.015858 6.415463 
4.164763 4.218940 0.009026 
PRIMCOORD
36 1
Li	      6.30263     10.46851      8.59587        -0.006083     -0.013880     -0.050162
Li	      6.25256      8.47678     10.58612         0.059978     -0.034476     -0.055181
Li	      6.22451      6.35568      4.45149        -0.014021      0.083591      0.089018
Li	      6.19522      4.33413      6.42697         0.021795      0.006216      0.053932
Li	      0.03659      4.19811      4.27235        -0.001168     -0.000598      0.002206
Li	      2.10122      6.31986      4.27409         0.006684     -0.022039      0.005868
Li	      6.29173      8.37466      6.42091         0.011713      0.004851     -0.031886
Li	      4.25098      6.30944      6.43753         0.002277     -0.005246      0.004274
Li	      4.12456      4.25581      8.52585        -0.011918     -0.014596     -0.013868
Ti	      2.08958      8.31585      6.34304         0.137290     -0.192419     -0.246423
Ti	      4.20110      4.27305      4.45391        -0.323049      0.101814      0.316335
Mn	      2.02313      4.25303      2.24311         0.055968     -0.016127      0.041227
V	      6.27684      6.33699     12.75035         0.009948     -0.158763     -0.005973
V	      8.23400      4.23927      4.28836         0.027827     -0.065407     -0.032325
V	      6.22624      2.20890      8.58375        -0.106049     -0.111937      0.227974
Cr	      4.18558      8.44975      8.57375        -0.097499      0.068503     -0.078970
Fe	      6.24683      6.39561      8.47883         0.106416     -0.133174      0.174309
Ni	      4.12763      2.15173      6.40548        -0.002621      0.022959      0.048400
O	      2.08529      2.11939      1.96744         0.182651     -0.024370     -0.117805
O	      4.20792      4.21644      2.05033         0.038271     -0.102869      0.026773
O	      4.15629      2.14513      4.21225         0.039464      0.116381     -0.072786
O	      6.22111      4.21010      4.27742        -0.083400      0.011058      0.002646
O	      6.29792      2.06510      6.52097         0.132622     -0.028152      0.114835
O	      8.37966      4.21295      6.36248        -0.037847     -0.049640     -0.141606
O	      2.27992      4.20793      4.31756         0.267621      0.002850      0.062642
O	      4.21784      6.18752      4.18282         0.046894     -0.122481     -0.190826
O	      4.20264      4.20943      6.29643         0.031645      0.100916     -0.420960
O	      6.28452      6.31602      6.55084        -0.106707     -0.006864     -0.103734
O	      6.17996      4.19549      8.62177        -0.092016      0.214995     -0.032626
O	      8.31981      6.40248      8.51873        -0.110618      0.054189      0.079445
O	      2.05871      6.44592      6.35937         0.029710      0.218659      0.024800
O	      4.06511      8.47962      6.52592        -0.077991      0.032892      0.002833
O	      4.21224      6.44491      8.64977        -0.068443     -0.048495      0.086634
O	      6.16277      8.36994      8.55578        -0.019639      0.116940      0.016325
O	      6.14822      6.32998     10.75713        -0.031868      0.075360     -0.049549
O	      8.30231      8.53651     10.88309        -0.017836     -0.080642      0.264203
