# total energy = -238.45321708 eV
 
CRYSTAL
PRIMVEC
-0.027118 6.440997 6.359282 
6.352911 0.018786 6.314112 
4.237860 4.266719 0.009784 
PRIMCOORD
36 1
Li	      2.18138      6.45461      8.42000         0.032009     -0.035294      0.100978
Li	      4.18579      8.52078      8.45267         0.025524     -0.011650      0.215026
Li	     10.54668      6.49825      8.52412        -0.011737     -0.019795     -0.193894
Li	      2.07003      4.28260      2.19808         0.010959     -0.019317     -0.189833
Li	      2.01782      2.25317      4.17616         0.202098     -0.114145      0.046448
Li	      2.15587      6.37983      4.19488        -0.023491     -0.036340     -0.043700
Li	      2.06530      4.35387      6.29606         0.191924     -0.026320      0.076500
Li	      4.21532      6.41780      6.36404         0.094791     -0.229891      0.112221
Li	      4.25300      4.32489      8.45490        -0.022258      0.006268     -0.224862
Ti	      2.20545      8.42321      6.52760        -0.617829      0.202475      1.196387
Ti	      6.39011      8.57448     10.42914        -1.104470      0.572683     -0.513105
Mn	      6.31736      6.41572      8.43650         0.075990      0.144250     -0.456652
V	      4.04879      4.48093      4.09075         0.775449     -1.292627      0.209813
V	      8.44206      6.44855      6.43390         0.023717     -0.023910     -1.825956
V	      6.32610      4.29488      6.42062        -0.026166      0.272979     -0.572306
Cr	      4.19116      6.45734     10.51490        -0.382735      0.894613      0.321726
Ni	      4.25454      4.22118      0.12221        -0.211441      0.373560      0.201906
Ni	      0.04289      4.19028      4.18582         0.106617     -0.030514     -0.102519
O	      2.13654      2.15809      1.98669         0.030938     -0.124099     -1.001758
O	      4.25142      4.24450      2.29050        -0.072557      0.093280      0.297800
O	      4.34301      2.11301      4.31820         0.603403     -0.278751     -0.380850
O	      6.37833      4.16191      4.31620         0.171140     -0.411744     -0.077536
O	      6.35593      2.17028      6.27760         0.517817      0.117231     -0.157346
O	      8.45427      4.27794      6.27812         0.296257     -0.564685     -0.194335
O	      2.20208      4.31129      4.23968        -0.940849      0.087891     -0.041626
O	      4.21720      6.30647      4.23138        -0.051826      1.142474      0.032239
O	      4.27134      4.21131      6.14123        -0.077705      0.489473     -0.391315
O	      6.45598      6.31081      6.26448        -0.388065     -0.364992      0.015514
O	      6.33737      4.28739      8.38320        -0.037592     -0.257582      0.872541
O	      8.46438      6.46571      8.25825         0.011483     -0.008191      2.059457
O	      2.02901      6.57150      6.38129         0.126432      0.369026     -0.113319
O	      4.09206      8.61435      6.29025         0.039844     -0.219851     -0.364424
O	      4.21279      6.46008      8.57165         0.000686     -0.067304      0.078045
O	      6.34384      8.59160      8.59585         0.048087      0.022292      0.811591
O	      6.24007      6.58496     10.66227         0.130093     -0.400314      0.065447
O	      8.33363      8.68778     10.64371         0.453463     -0.251179      0.131695
