# total energy = -246.79795740 eV
 
CRYSTAL
PRIMVEC
0.028729 6.323935 6.371923 
6.344248 -0.003091 6.404192 
4.224734 4.232294 0.002770 
PRIMCOORD
36 1
Li	      4.29825      4.16138      0.20238         0.016977     -0.016308     -0.011721
Li	      1.93545      0.07157      2.02050         0.022780      0.006089     -0.059748
Li	      4.10617      2.30878      2.03627        -0.014406     -0.017245     -0.069604
Li	      6.36621      8.43622     10.60904         0.015381     -0.005208      0.009168
Li	      4.32265      6.16965      2.23218         0.089069      0.047771      0.041959
Li	      2.28305      4.15943      2.21424        -0.028862     -0.066944      0.024523
Li	      4.31678      8.31676      4.30037         0.026315     -0.030219      0.013415
Li	      2.24611      6.26909      4.28461         0.017919      0.001931      0.004442
Li	      4.14164      6.44951      6.19855         0.013820     -0.017020     -0.059263
Ti	      4.34897      6.36451     10.54242         0.300988     -0.087347     -0.181047
Ti	      6.35808      4.14156      6.39537        -0.093276     -0.209225      0.055189
Mn	      4.22184      4.29230      4.08004         0.008244      0.007182      0.044685
V	      2.19669      8.31106      6.46337         0.004308     -0.003339     -0.174762
V	      6.19534      8.51333      6.33752         0.068145      0.069215      0.140375
V	      8.47660      8.41755      8.62493        -0.020510      0.038083     -0.052506
Cr	      8.48676      6.27330      6.45049         0.051900      0.091078      0.054139
Cr	      6.37696      6.36145      8.53691        -0.124594     -0.023131      0.099374
Co	      2.07755      2.13613      4.16034        -0.293705      0.028054     -0.127035
O	      2.11931      2.12758      1.97349         0.020231     -0.012434      0.139260
O	      4.22541      4.22016      2.10026        -0.000187     -0.002153     -0.118763
O	      4.16016      1.99892      4.41788         0.098080     -0.096483      0.063930
O	      6.41990      4.29312      4.44545         0.036919     -0.056109      0.123770
O	      6.29894      2.24904      6.39663        -0.050687      0.223224     -0.047190
O	      8.35311      4.22035      6.31851        -0.102891      0.029606     -0.004804
O	      2.12128      4.14015      4.39925         0.062146      0.066939     -0.061759
O	      4.33360      6.36108      4.24433         0.148188     -0.000671      0.027230
O	      4.29815      4.08675      6.49938         0.071167     -0.064450      0.012444
O	      6.44899      6.27678      6.51487         0.020114     -0.027114      0.010975
O	      6.25442      4.34840      8.37461         0.021594      0.049849     -0.084898
O	      8.37488      6.37203      8.46079         0.004354     -0.032673     -0.015496
O	      2.14507      6.36704      6.32089        -0.015646     -0.047937     -0.023117
O	      4.27479      8.44166      6.38839        -0.034567     -0.002438     -0.011981
O	      4.31357      6.29625      8.64725         0.039735      0.000093      0.243230
O	      6.49029      8.37660      8.41337        -0.034592     -0.002466      0.014210
O	      6.22303      6.39566     10.55186        -0.323255      0.028846     -0.052470
O	      8.45314      8.58906     10.65476        -0.021192      0.132954      0.033844
