# total energy = -91.12957875 eV
 
CRYSTAL
PRIMVEC
4.144014 0.002407 -0.004763 
-2.063257 4.167902 -6.244671 
-2.071990 4.111775 2.047854 
PRIMCOORD
16 1
Li	      2.06294      2.12300     -0.11873         0.013678     -0.006046     -0.011968
Li	     -0.00048      4.34846     -0.08390         0.005294      0.021485     -0.009119
Li	      0.00656      2.10050     -2.01487        -0.006663      0.000141      0.005195
Li	      0.01481      6.16113     -1.99993        -0.015321      0.007895      0.011330
Mn	      2.06765      4.10336      1.93263         0.007732      0.053426     -0.048468
Mn	      0.00860      4.09495     -4.13318        -0.007720     -0.008531      0.031888
Ni	      2.08113      4.13086     -1.97483        -0.002420      0.090108     -0.014767
Ni	     -2.06626      6.17930     -4.21512         0.000056      0.005451     -0.010970
O	     -2.05997      6.25207     -2.20572        -0.015190      0.031506      0.084395
O	      2.06792      4.13203      0.06922         0.013100     -0.008371      0.121221
O	      0.00490      6.18196     -4.22060         0.009537      0.035233     -0.000737
O	     -2.06832      8.20489     -4.09255         0.008788      0.121052      0.021863
O	      2.07991      4.14220     -4.26712         0.002454     -0.131154     -0.040321
O	      2.07822      2.20376     -2.07408        -0.006282     -0.144257     -0.001803
O	      0.01152      4.15949     -2.23935        -0.025136      0.003135     -0.017920
O	     -0.00885      1.84518      0.05499         0.018093     -0.071073     -0.119817
