# total energy = -248.63083380 eV
 
CRYSTAL
PRIMVEC
-0.004028 6.248257 6.357197 
6.389756 -0.022186 6.374970 
4.269548 4.187218 -0.024516 
PRIMCOORD
36 1
Li	      8.44959      2.13515      6.31743         0.035592     -0.038858      0.096626
Li	      6.37032      2.20779      8.48473         0.077169     -0.017245     -0.018807
Li	      1.98887      4.20033      2.28151         0.000166     -0.095070      0.058688
Li	      2.08989      2.20919      4.19520        -0.001740     -0.117371     -0.047582
Li	      4.08721      4.20833      4.23358         0.056799      0.008847     -0.045632
Li	      6.43166      4.03830      6.51192        -0.017584     -0.049625     -0.021320
Li	      0.07783      4.12569      4.12854        -0.051133      0.053641      0.003855
Li	      8.57430      6.17809     10.44318        -0.011048      0.027964      0.007447
Li	      8.63288      8.26597      8.56352         0.022787     -0.027831     -0.014502
Ti	      6.35569      4.29184      2.20046        -0.338915      0.422047      0.448853
Ti	      4.28680      6.21068      6.17356        -0.010477      0.033993     -0.989941
Mn	      4.19033      2.16289      2.20283        -0.066512      0.114830      0.008610
V	      8.54595     10.32951     10.60860        -0.221047      0.053028      0.045983
V	      8.55137      6.26197      6.38244         0.119160      0.183979      0.004408
V	      6.42442      6.14430      8.48627         0.088271     -0.033963      0.278450
Cr	      6.41894      6.24218     12.70089         0.133424      0.090545     -0.128089
Cr	      2.13390      4.15147      6.26584        -0.100612      0.085963     -0.034835
Fe	      6.46081      8.32212     10.60001        -0.013133     -0.066965     -0.068272
O	      2.11344      1.96714      2.09883         0.049023     -0.300281     -0.026569
O	      4.44342      4.22721      1.98879         0.101267     -0.008181     -0.012039
O	      4.31544      1.99629      4.35711        -0.010810     -0.041705     -0.008186
O	      6.48877      4.21946      4.08528        -0.388762     -0.000555     -0.330626
O	      6.33760      1.98371      6.37796         0.005683     -0.029856      0.285149
O	      8.69490      4.23194      6.31966        -0.129251     -0.080396     -0.491511
O	      2.14119      4.16300      4.32096         0.017422      0.019305     -0.005707
O	      4.24727      6.24794      4.38283         0.006091     -0.045212      0.855313
O	      4.18182      4.20396      6.31572         0.012170      0.076397      0.039157
O	      6.29112      6.29206      6.37701        -0.096053     -0.028223      0.023911
O	      6.38672      4.24074      8.46604        -0.052486     -0.078134     -0.059450
O	      8.39153      6.26476      8.35468         0.096866     -0.016598     -0.010948
O	      2.19787      6.18506      6.44629         0.063592      0.000738     -0.043345
O	      4.36006      8.28277      6.34892         0.001422     -0.082770      0.000411
O	      4.22936      6.21364      8.44737         0.057008     -0.031172      0.447654
O	      6.37692      8.33397      8.38100         0.029786      0.059071     -0.238327
O	      6.30093      6.18612     10.66284         0.533722     -0.122191     -0.036365
O	      8.48084      8.39787     10.61316         0.002141      0.081854      0.027538
