# total energy = -245.06261440 eV
 
CRYSTAL
PRIMVEC
-0.004306 6.333842 6.308261 
6.271277 0.011693 6.292094 
4.195645 4.226780 -0.007085 
PRIMCOORD
36 1
Li	      8.39229      8.43598     12.38307        -0.021100     -0.028964      0.098172
Li	      4.19544      2.11955      2.15123         0.025074     -0.029267      0.063332
Li	      8.31407     10.37077     10.49932         0.026486      0.037727      0.029656
Li	      6.47214      8.51357     10.44290        -0.045792     -0.013434     -0.016819
Li	      2.09678      4.21872      2.18091        -0.012583      0.015710      0.064261
Li	      4.16717      4.17532      4.13220        -0.007885     -0.047823      0.032615
Li	     10.26944      8.44699     10.49047         0.022811      0.035680      0.025735
Li	      8.36946      6.54733     10.48801        -0.033353      0.040908      0.020483
Li	      8.37207      8.47405      8.65054         0.000093      0.000026     -0.098014
Ti	      4.17543      6.29354      2.18118         0.039977     -0.206509      0.027247
Ti	      6.24698      6.37079      8.56297        -0.090314      0.111634      0.785517
Mn	     10.44669     10.49356     12.51371        -0.135283      0.079889     -0.062451
V	      4.20129      2.11344      6.23637         0.010082      0.031985     -0.106241
V	      6.32899      4.19584      6.23995        -0.078115      0.014220     -0.051631
V	      2.08912      4.22973      6.23398        -0.039291      0.030652      0.000527
Cr	      2.11429      2.15080      4.14019         0.075631      0.011802      0.153295
Cr	      4.13744      6.36447      6.27512         0.028583     -0.022187     -0.066477
Ni	      6.32571      4.19974      2.16516         0.052181     -0.104654      0.011229
O	      1.95635      2.10085      2.18100        -0.128125      0.086515     -0.114399
O	      4.21970      4.39610      2.09008        -0.083848      0.239837      0.045942
O	      4.08448      2.15437      4.29823        -0.005684     -0.015449     -0.105683
O	      6.27643      4.32687      4.23062         0.007566      0.002961      0.028207
O	      6.23566      2.15380      6.44231         0.113461      0.032893      0.067765
O	      8.30282      4.36587      6.30044        -0.026282     -0.086672      0.015375
O	      2.10889      4.14560      4.29914         0.000220     -0.160516     -0.065890
O	      4.22238      6.36582      4.14286         0.007740     -0.012546     -0.126955
O	      4.20586      4.24554      6.28073        -0.020491      0.002188     -0.019390
O	      6.22582      6.31890      6.23842         0.016609      0.021949      0.035309
O	      6.28538      4.26902      8.27955         0.013668      0.007720      0.036509
O	      8.35939      6.35135      8.31579         0.077958     -0.016928      0.020466
O	      2.17058      6.26629      6.40801         0.065448      0.137491     -0.125856
O	      4.29457      8.35323      6.32405        -0.059032     -0.051107      0.018609
O	      4.29614      6.33792      8.27577         0.176003      0.000429      0.046087
O	      6.30002      8.31799      8.30376         0.004617     -0.157089      0.084705
O	      6.26887      6.34345     10.36212         0.012154     -0.001359     -0.735356
O	      8.35938      8.46019     10.52840         0.010816      0.012287     -0.015881
