# total energy = -251.15093545 eV
 
CRYSTAL
PRIMVEC
0.011562 6.283654 6.253833 
6.364571 -0.009088 6.274599 
4.249802 4.209405 -0.012955 
PRIMCOORD
36 1
Li	      6.33569      4.17186      2.15793         0.003676      0.003376      0.006879
Li	      4.27206      2.14113      2.15494         0.023742      0.004392      0.022147
Li	      2.18940      4.21014      2.11694         0.014358      0.020508      0.019084
Li	      2.17714      2.04576      4.12710        -0.005789     -0.002684      0.052543
Li	      4.31553      4.13645      4.11266         0.073992     -0.015116      0.035432
Li	      6.34814      4.24731      6.23708        -0.004938      0.083700     -0.022376
Li	      8.44749      6.26087     10.36925         0.040683      0.000045     -0.001403
Li	      8.44984      8.39992      8.31774        -0.011853     -0.025025     -0.032167
Li	      6.37707      6.32015      8.32903        -0.030766     -0.004391     -0.093291
Ti	      4.24971      6.28309      2.21772        -0.063344     -0.051208      0.212321
Ti	      6.44739      4.17542     10.30823         0.236026     -0.102011     -0.162665
Mn	      4.16651      6.31309     10.23795         0.012194     -0.005085     -0.021547
V	      2.12301      2.14000      0.05612         0.047808     -0.050874     -0.041132
V	      4.22687      2.12386      6.27562        -0.117633     -0.051301      0.050670
V	      4.31269      6.22322      6.32039        -0.081192     -0.068973     -0.329005
Cr	      4.27947      4.20614      0.02702         0.011374     -0.046722     -0.034460
Cr	      6.37715      8.40664     10.33708         0.031340     -0.000391     -0.007266
Cr	      6.37225      8.40551      6.33120         0.014582     -0.122927     -0.064718
O	      1.96924      2.12536      2.01512        -0.023370      0.021178      0.060037
O	      4.24833      4.31919      2.00753         0.029836      0.087652     -0.000397
O	      4.35200      2.11263      4.27400         0.027597      0.051530     -0.105180
O	      6.35531      4.07063      4.21196        -0.040136     -0.018707     -0.019188
O	      6.38166      2.00061      6.22034         0.053021      0.025316      0.078833
O	      8.63309      4.19392      6.28004        -0.017911     -0.013493      0.044638
O	      1.95088      4.19215      4.29355        -0.223869      0.033260     -0.041414
O	      4.22074      6.33497      4.18788        -0.060919      0.228685     -0.287477
O	      4.09805      4.14541      6.26293         0.027311      0.017627     -0.044864
O	      6.33461      6.40110      6.24025         0.242255      0.006209      0.038834
O	      6.36958      4.13194      8.40794        -0.030876     -0.015974      0.128279
O	      8.65395      6.30082      8.24487         0.105866     -0.000238      0.048265
O	      2.15712      6.31231      6.25397        -0.271739     -0.027029      0.065207
O	      4.27188      8.43638      6.22985         0.002030      0.064270     -0.039875
O	      4.25778      6.28415      8.18296        -0.004223      0.022338      0.437630
O	      6.37209      8.36560      8.35567        -0.012818      0.035749     -0.009324
O	      6.38811      6.24933     10.49870         0.035302     -0.065007      0.066019
O	      8.53374      8.35457     10.54214        -0.031617     -0.018678     -0.009065
