# total energy = -246.90768301 eV
 
CRYSTAL
PRIMVEC
0.026311 6.347821 6.355323 
6.326058 0.002064 6.379315 
4.190097 4.220761 0.028159 
PRIMCOORD
36 1
Li	      8.41704      8.42539     12.63435        -0.012363      0.003471     -0.026641
Li	     10.47445      6.38511      8.57214        -0.033403      0.023303      0.015838
Li	      6.26889      6.33763      4.24907        -0.035864     -0.006407      0.033537
Li	      4.22883      4.27235      4.24433         0.026997      0.062158     -0.015036
Li	      6.32343      4.18372      6.42487         0.034003     -0.076654      0.014817
Li	     10.39452      8.44109     10.60120        -0.061124     -0.024786     -0.049309
Li	      8.40352      6.49200     10.52661         0.016282     -0.062596     -0.015536
Li	      8.46733      8.35574      8.63711         0.007150     -0.037855     -0.065945
Li	      6.39363      6.32042      8.59338        -0.014838     -0.027634      0.065332
Ti	      6.28092      4.26881      2.23623        -0.006251     -0.082025      0.446802
Ti	      4.34281      6.24246      6.26394         0.134438     -0.094802     -0.674311
Mn	      8.46131     10.43554     10.68289        -0.015732     -0.034048     -0.009462
Mn	      2.14416      4.25247      6.16790         0.022764     -0.026174     -0.053062
V	      4.18654      2.12536      2.19919         0.025673      0.051747      0.038332
V	      8.25772      4.26363      8.61458        -0.053107      0.083936      0.108383
V	      4.27438      2.14396      6.38727        -0.059891      0.030547      0.060401
Cr	      6.39362      6.37288     12.71538        -0.023132      0.027952     -0.065854
Co	      6.36714      8.41337     10.61163         0.159869      0.066544      0.025235
O	      2.15120      2.09821      2.18275         0.067906     -0.133469     -0.016725
O	      4.24084      4.22329      2.07740         0.155576     -0.054539     -0.064829
O	      4.27328      2.09007      4.27592         0.045142      0.009586     -0.045698
O	      6.27477      4.23226      4.11150        -0.033189      0.168552     -0.383329
O	      6.23926      2.02658      6.39365        -0.028866     -0.075405     -0.088334
O	      8.53298      4.26621      6.53784         0.033559      0.029431      0.088156
O	      2.22386      4.23524      4.04163        -0.020222     -0.008550     -0.112443
O	      4.19958      6.38635      4.45911         0.074551     -0.040833      0.627332
O	      4.26971      4.31611      6.37915         0.054790      0.200158      0.001855
O	      6.28370      6.34197      6.36230        -0.185480     -0.043528      0.008617
O	      6.47385      4.18507      8.47087         0.055146      0.015493      0.011671
O	      8.37324      6.23626      8.39678         0.025720     -0.044190      0.006644
O	      2.15136      6.38579      6.48886        -0.004994      0.012689      0.121476
O	      4.21913      8.45119      6.51757        -0.032429      0.010780     -0.000300
O	      4.11280      6.39766      8.39015        -0.120143      0.073696     -0.088208
O	      6.23130      8.60714      8.47252        -0.014702      0.117504      0.013286
O	      6.38374      6.32705     10.74701        -0.032624     -0.152461      0.068000
O	      8.33915      8.41842     10.59880        -0.151211      0.038408      0.019308
