# total energy = -244.11751270 eV
 
CRYSTAL
PRIMVEC
-0.055004 6.383823 6.270721 
6.372182 -0.009985 6.225852 
4.258572 4.236332 -0.017088 
PRIMCOORD
36 1
Li	      4.34443      6.38830     10.48630         0.035315     -0.008270      0.035161
Li	      6.32052      8.34506     10.47056         0.023118     -0.000158      0.037232
Li	     10.46863      6.48988      8.30190        -0.013835     -0.020028     -0.013887
Li	      8.36502      4.32574      8.30206        -0.037646      0.014670     -0.016786
Li	      8.62303      6.24822      6.29617         0.096110     -0.050495     -0.052385
Li	      6.35466      4.21087      6.28920        -0.019858     -0.020198     -0.040624
Li	      6.41392      4.32859     10.34866        -0.003099      0.040730     -0.030477
Li	      8.40999      6.28467     10.35303        -0.048709      0.011933     -0.021958
Li	      2.10552      4.25083      6.16799         0.036196     -0.002117     -0.015765
Ti	      8.39206      2.22541      6.03934        -0.403548      0.333145     -0.231900
Ti	      4.30947      2.16402      2.09446         0.062058      0.154691      0.184590
Mn	      6.33584      6.39641      4.19674         0.057513     -0.029663      0.059648
Mn	      6.41732      6.29646      8.39159         0.054840     -0.053221      0.022100
V	      4.18966      4.25265      4.17085         0.009311     -0.041883      0.014193
V	      4.21231      6.36090      6.21353        -0.028867     -0.069892      0.078632
V	      8.52201      8.39960      8.35438         0.018075     -0.018036      0.005613
Cr	      2.13474      0.01072      2.09807        -0.009343     -0.009237      0.030087
Ni	      6.33735      6.37428     12.38695        -0.027144      0.077381     -0.004322
O	      2.31105      2.03276      2.01853         0.078508     -0.020322      0.072229
O	      4.34903      4.09976      2.03170         0.111720     -0.227305      0.041294
O	      4.28033      2.16815      4.04415        -0.053480      0.043630     -0.237086
O	      6.23113      4.35041      4.07184         0.055738      0.092279     -0.042579
O	      6.52869      2.05506      6.25186         0.381770      0.095128     -0.038993
O	      8.55651      4.09905      6.23793        -0.100448     -0.360569     -0.033865
O	      2.20249      4.14454      4.13586        -0.100306     -0.142526     -0.013129
O	      4.18750      6.23767      4.19951         0.009718      0.036143     -0.025117
O	      4.16950      4.39475      6.25837        -0.043108      0.001783      0.026305
O	      6.14283      6.41210      6.28057         0.044384      0.016617     -0.163739
O	      6.19993      4.25302      8.32114        -0.006224     -0.022239      0.028538
O	      8.45676      6.47373      8.25350         0.052569     -0.004334      0.022644
O	      2.15989      6.48507      6.34750         0.011593      0.080640      0.025892
O	      4.13578      8.44895      6.35098        -0.053067     -0.026074      0.067765
O	      4.11123      6.40408      8.34919        -0.072633      0.069960     -0.019790
O	      6.26922      8.57437      8.32710        -0.118646      0.062340      0.000885
O	      6.36329      6.34588     10.41220        -0.023931      0.002225     -0.117800
O	      8.43907      8.50298     10.46306         0.025354     -0.006729      0.367393
