# total energy = -251.31499814 eV
 
CRYSTAL
PRIMVEC
0.012996 6.232648 6.323660 
6.446891 -0.023837 6.360790 
4.285824 4.167745 -0.003836 
PRIMCOORD
36 1
Li	     10.66236      4.13857      6.36200        -0.070818     -0.014257      0.067985
Li	      4.27282      2.13864      2.10959         0.023439      0.065690     -0.029088
Li	      8.54700      4.12353      4.31445        -0.033689      0.000095      0.034571
Li	      6.53715      8.30577     10.59775         0.035819      0.031038      0.020211
Li	      2.19629      4.11138      2.13833         0.038612      0.005734     -0.024091
Li	      6.47842      4.13071      6.30562         0.015525     -0.047752     -0.017567
Li	      0.05862      4.20500      4.22815         0.012829      0.010399      0.023324
Li	      2.07366      6.20330      4.26772        -0.022041     -0.034171      0.040326
Li	      2.11580      4.17706      6.23231        -0.025137      0.066195     -0.024861
Ti	      4.31928      6.32342      6.25919        -0.176780      0.493544     -0.035423
Ti	      6.45784      6.20929      8.61924         0.023260      0.043971      0.546679
Mn	      8.58286      8.40361     12.53416         0.022066     -0.023516     -0.003360
Mn	      4.24160      4.11489      4.23715         0.010850     -0.012084     -0.075925
V	      6.45802     10.34205      8.45530         0.022477      0.018359     -0.082788
V	      6.44974      2.06534      8.42755        -0.001419     -0.091353      0.035324
V	      8.57833      6.15099      6.29034         0.053700     -0.091241      0.002183
Cr	      2.17108      2.09390      4.21582        -0.003429     -0.018740     -0.030879
Cr	      8.59467      8.30594      8.51095        -0.048329     -0.025040      0.073916
O	      2.08830      1.99976      2.17961         0.038951     -0.022763      0.050965
O	      4.40033      4.27033      2.08411        -0.086200      0.043405     -0.013139
O	      4.16869      2.02467      4.32383        -0.010258     -0.075805     -0.037442
O	      6.43719      4.20723      4.10504        -0.051735      0.000293      0.070124
O	      6.37681      2.08250      6.48289        -0.037789     -0.021577     -0.050209
O	      8.60018      4.23012      6.39499        -0.041097      0.084446      0.004261
O	      2.14266      4.06929      4.19210        -0.004198     -0.040458     -0.001496
O	      4.37309      6.27522      4.26841         0.078743      0.061496      0.140535
O	      4.30852      4.15934      6.43676         0.006682      0.060452      0.091978
O	      6.36215      6.20489      6.31710        -0.046674     -0.005471     -0.009760
O	      6.34815      4.19010      8.47993        -0.036910      0.090099      0.009285
O	      8.49714      6.27948      8.39049        -0.075116      0.010315      0.014592
O	      2.36291      6.21734      6.42323         0.149646     -0.078336     -0.034967
O	      4.31769      8.17444      6.37861         0.037836     -0.455445     -0.070204
O	      4.41554      6.17307      8.34792         0.119345     -0.010895     -0.033567
O	      6.52849      8.24614      8.46040         0.087762     -0.005876     -0.004149
O	      6.46057      6.22340     10.40039        -0.010387      0.002020     -0.515431
O	      8.58173      8.29115     10.47773         0.004463     -0.012770     -0.131912
