# total energy = -241.73443432 eV
 
CRYSTAL
PRIMVEC
0.027467 6.418224 6.276217 
6.307774 0.003601 6.299873 
4.201729 4.291423 0.005817 
PRIMCOORD
36 1
Li	      2.20174      8.40815      6.28986        -0.056806      0.030875     -0.014489
Li	      2.04710      0.09689      1.96857        -0.026268      0.065799      0.030029
Li	      2.13013      4.18848      2.21470         0.008307     -0.056687     -0.030258
Li	      1.99737      2.27593      4.14673         0.018454      0.047473     -0.052374
Li	      6.31655      4.28111      6.27743         0.074537     -0.035129      0.029529
Li	      4.35640      8.43148      4.30323         0.035167     -0.009173     -0.021318
Li	      2.20700      6.34729      4.34882        -0.012692     -0.023246     -0.111452
Li	      2.05391      4.42819      6.14794        -0.022330      0.036221      0.024808
Li	      4.03276      6.53315      6.16744        -0.067844      0.068047      0.062080
Ti	      8.37693      6.39353      6.27671         0.088169     -0.406620      0.061997
Ti	      6.32393      6.32626      8.37862        -0.102356     -0.113714      0.026357
V	      6.39967      8.58039     10.49912         0.038686     -0.021675      0.064328
V	      4.14349      4.38400      4.21307         0.028336      0.346421     -0.122073
V	      4.19656      4.31101      8.33091        -0.033101      0.057543      0.286539
Cr	      0.11186      6.39467      6.29809        -0.088563      0.050615     -0.055604
Fe	      4.04904      2.18047      1.97565        -0.014867     -0.132169      0.110649
Fe	      8.28620      4.30789      4.23495         0.037612      0.038164     -0.033560
Co	      0.13370      2.16889      2.15438         0.030163     -0.202227      0.033225
O	      2.16516      2.12848      2.10941        -0.193884      0.004205      0.109050
O	      4.23037      4.18858      2.05941        -0.034286     -0.066996      0.062617
O	      4.28020      2.21017      4.24574        -0.076240      0.178650      0.095629
O	      6.26797      4.14887      4.21204        -0.199521      0.042015     -0.004017
O	      6.24042      2.06776      6.33420        -0.048074      0.024416      0.229678
O	      8.50784      4.46665      6.30887         0.002490      0.332542      0.146727
O	      2.23406      4.26062      4.18759         0.093419     -0.000039      0.043992
O	      4.24031      6.34052      4.15969         0.084544     -0.128287     -0.445696
O	      4.24862      4.13551      6.33634        -0.007128     -0.103933     -0.086223
O	      6.46726      6.36974      6.44568         0.120395     -0.025761      0.115438
O	      6.23644      4.41419      8.42912         0.001735      0.259942      0.012399
O	      8.35607      6.50092      8.29721        -0.029090     -0.002311     -0.030802
O	      2.04129      6.43294      6.28036         0.026642     -0.035429     -0.032301
O	      4.22342      8.67175      6.33639         0.023103     -0.007922     -0.154994
O	      4.35943      6.47295      8.34112         0.187633     -0.037548     -0.112828
O	      6.34951      8.40435      8.43335        -0.012283     -0.052314     -0.024903
O	      6.27936      6.53131     10.46322         0.082323     -0.015475     -0.114794
O	      8.34751      8.60745     10.36001         0.043618     -0.106272     -0.097386
