# total energy = -102.35838610 eV
 
CRYSTAL
PRIMVEC
-0.000226 2.103906 2.105701 
3.990013 0.001010 -0.000644 
0.003019 8.748105 -8.757234 
PRIMCOORD
16 1
Li	      0.00308      0.13612     -0.10548        -0.007958      0.003146     -0.011350
Li	      1.97674      2.02321      0.14372        -0.004854     -0.033597      0.008204
Li	      0.00604      6.71210     -2.52886        -0.003877     -0.011966      0.017906
Li	      0.00361      8.53821     -4.34522        -0.005861      0.017805     -0.022461
Ti	      2.09495      4.38888     -2.29481         0.166243     -0.009027      0.027805
Ti	      2.12489      8.70635     -6.59881         0.288715      0.101190     -0.092364
Ni	      3.97580      2.04614     -2.03085         0.001273      0.012561     -0.013144
Ni	      1.98338      6.58907     -4.51320         0.008432     -0.020355      0.050337
O	      3.97858      6.51136     -4.42943         0.002582     -0.004492      0.009685
O	      1.98024      8.73760     -4.53956         0.009302      0.109585     -0.128445
O	      3.95230      4.28180     -2.19403        -0.191546      0.082495     -0.073894
O	      1.98209      6.37894     -2.19329         0.000607     -0.102388      0.120160
O	      3.97145      2.17738     -0.05347         0.006229     -0.155303      0.142961
O	      1.96173      4.49664     -0.30492         0.034667      0.127485     -0.135480
O	      3.94615      8.68626     -6.58144        -0.324775     -0.024067      0.007481
O	      1.97780      8.55715     -8.55654         0.020819     -0.093073      0.092599
