# total energy = -240.19682949 eV
 
CRYSTAL
PRIMVEC
0.009508 6.296501 6.319527 
6.302904 -0.005442 6.334457 
4.201748 4.207338 -0.003477 
PRIMCOORD
36 1
Li	      6.27724      4.27187      2.22976        -0.023525     -0.016616     -0.022280
Li	      8.26859      4.29988      4.27819         0.039121      0.000705      0.018029
Li	      4.24860      6.26799      2.16965        -0.005193     -0.034307      0.052732
Li	      6.24324      6.11410      4.31698        -0.090716      0.051843      0.027750
Li	      4.32046      4.26408      4.24329        -0.024876      0.015056      0.037620
Li	      4.15045      2.08491      6.20826         0.005270      0.058816     -0.002565
Li	      6.31933      4.29143      6.19224        -0.023783      0.024860      0.050834
Li	      4.21401      8.30172      4.26521         0.030044     -0.024023      0.012484
Li	      4.26512      6.30527      6.19213         0.034823     -0.027657     -0.007709
Ti	      2.09494      4.11633      2.13346         0.127866     -0.147149      0.131895
Ti	      4.31910      4.27078      8.34590         0.081226      0.029171     -0.657320
V	     10.46729      4.20661      6.29902         0.014788      0.067879     -0.069434
V	      2.22810      6.31496      4.18562        -0.146306     -0.039533      0.064208
V	      6.33581      6.27672      8.42580         0.039861      0.082117     -0.121655
Cr	      4.18816      2.08315      2.15318         0.058453     -0.066321      0.038926
Fe	      6.23534      2.27451      4.29102        -0.012576     -0.160195      0.008046
Fe	      2.12469      4.14140      6.23869         0.013431      0.041876     -0.028160
Ni	      8.39939      8.37354     12.61194        -0.018888     -0.046398     -0.018354
O	      2.15903      2.19726      2.09300         0.014433      0.146706      0.049456
O	      4.05620      4.11019      2.05960        -0.114731     -0.003348      0.067489
O	      4.27357      2.09753      4.12779        -0.106468     -0.000357     -0.077255
O	      6.30474      4.15516      4.22324         0.024181      0.101660     -0.040110
O	      6.35052      1.99203      6.26349        -0.115880     -0.020928      0.081642
O	      8.43196      4.18729      6.45662         0.037516      0.045601      0.141702
O	      2.05491      4.28504      4.04821         0.010150     -0.027526     -0.264646
O	      4.12218      6.29911      4.21794         0.105532     -0.015883     -0.049441
O	      4.22881      4.19556      6.51580         0.103809      0.091677      0.628801
O	      6.32701      6.35702      6.46159        -0.032378     -0.154602      0.039285
O	      6.28379      4.19173      8.43547        -0.058969     -0.007587     -0.014739
O	      8.38333      6.33011      8.42843         0.004220     -0.014714      0.019015
O	      2.01110      6.25056      6.27921        -0.036259      0.058166     -0.010715
O	      4.14636      8.47341      6.42434         0.021614     -0.053700      0.045704
O	      4.30826      6.25397      8.46916        -0.037665     -0.052617     -0.012231
O	      6.32481      8.36693      8.49412         0.003713      0.058480      0.030580
O	      6.40599      6.34421     10.49927        -0.001112      0.053727     -0.048617
O	      8.36311      8.34826     10.45279         0.079273     -0.014881     -0.100969
