# total energy = -243.33600029 eV
 
CRYSTAL
PRIMVEC
0.016826 6.361505 6.267089 
6.469910 -0.004340 6.288777 
4.289908 4.232279 0.020433 
PRIMCOORD
36 1
Li	      6.33353      0.11243      6.04397        -0.010851      0.037544      0.117577
Li	      4.60921      6.37340     10.53625        -0.034619     -0.019999      0.014738
Li	      6.47386      8.23754     10.56789         0.074443      0.085212      0.079137
Li	      8.54291      4.33245      8.33623        -0.005272      0.069382      0.004782
Li	      2.18164      2.13929      4.16873        -0.049649     -0.016340     -0.054384
Li	      8.72006      6.17796      6.31728         0.099788     -0.085012      0.025737
Li	      6.45486      4.50136     10.39165        -0.034843     -0.023307     -0.026114
Li	      8.37319      6.35685     10.43814         0.023717      0.031456      0.013514
Li	      6.54254      6.28158      8.59839         0.043290     -0.029750     -0.099677
Ti	      4.31199      4.13777      4.17701        -0.002203     -0.001669     -0.248869
Ti	      6.36961      8.38168      6.22627         0.031986     -0.062552     -0.351550
V	      8.59415      2.20073      6.21495        -0.077548     -0.090116     -0.047670
V	      6.46164      4.21883      2.17730        -0.068369      0.191769      0.006802
V	     10.70821      6.36490      8.42135         0.054339     -0.095565      0.001097
Cr	      4.31056      6.35087      6.21104        -0.130527     -0.047799     -0.091895
Fe	      4.33567      8.40687      8.42758        -0.134858      0.058225      0.187578
Fe	      6.54713      4.27394      6.26253         0.013164     -0.025838     -0.015958
Fe	      8.65712      8.41405      8.59402         0.042288      0.099434     -0.080461
O	      2.06765      2.00023      2.01108         0.054881     -0.048843      0.075490
O	      4.31817      4.21128      2.21953         0.076675     -0.041196      0.320462
O	      4.27287      2.27420      4.22748         0.023263      0.086190     -0.073111
O	      6.30353      4.26083      4.18363        -0.157040     -0.028460     -0.071729
O	      6.54197      2.11763      6.39760        -0.029262     -0.032094     -0.015103
O	      8.62628      4.12631      6.32864         0.114714      0.098616      0.011001
O	      2.28917      4.26039      4.31893         0.056208     -0.051229      0.318280
O	      4.35119      6.20352      4.18508         0.016180     -0.037850      0.123919
O	      4.19130      4.33189      6.22061        -0.071696      0.033649     -0.018463
O	      6.35373      6.49954      6.28531        -0.030658      0.272653     -0.017230
O	      6.35116      4.21003      8.33333         0.033962      0.085881      0.049136
O	      8.73420      6.46167      8.37157        -0.095798     -0.082806     -0.027380
O	      2.28643      6.35478      6.35237         0.069714     -0.080872      0.006242
O	      4.40069      8.38524      6.25889         0.181550     -0.052231      0.051463
O	      4.25584      6.32232      8.25229        -0.019544     -0.124036     -0.081302
O	      6.56859      8.58105      8.24342        -0.075879     -0.142584     -0.105630
O	      6.48308      6.37181     10.45109         0.006029      0.033168     -0.029570
O	      8.61055      8.47791     10.49848         0.012426      0.036967      0.049144
