# total energy = -240.19824111 eV
 
CRYSTAL
PRIMVEC
-0.031881 6.395374 6.180113 
6.416192 -0.029872 6.178238 
4.259210 4.243786 -0.001617 
PRIMCOORD
36 1
Li	     10.45378      4.28314      6.27680        -0.001228     -0.001315      0.038646
Li	      8.47437      2.25398      6.26970        -0.005177      0.009775      0.046557
Li	      6.20361      4.42102      2.08998        -0.029986      0.031699     -0.037686
Li	      2.22534      4.14170      1.88658         0.075479     -0.079750      0.041949
Li	      2.16613      2.07867      4.06620         0.001138      0.042271     -0.016047
Li	      4.33803      4.16100      4.08051         0.017177     -0.012103     -0.011907
Li	      8.60622      6.13981      6.06790         0.021768      0.007684      0.011130
Li	      6.60881      4.14610      6.07460        -0.019728     -0.045456     -0.025471
Li	      2.15163      6.35377      4.22971        -0.005526     -0.013891      0.051037
Ti	      4.26635      4.24117      8.20047        -0.021288     -0.003489     -0.084373
Ti	      6.55456      6.24635      8.19458         0.106732      0.030974     -0.085088
V	      6.37739      2.16438      4.22733         0.028116      0.029626      0.068396
V	      4.24083      8.53052      4.15772         0.079238      0.018061      0.131079
V	      2.11437      4.33480      6.16546        -0.089396      0.065918     -0.085393
Cr	      0.05753      2.03422      2.02066         0.110749     -0.127384      0.047069
Cr	      4.23347      6.38542      6.16812        -0.104794      0.057656     -0.026299
Co	      4.03696      2.31569      2.09656        -0.043060     -0.007152      0.050374
Ni	      8.43681      4.30584      4.20034         0.013681      0.018773     -0.113779
O	      1.99938      2.13235      2.09687         0.007327      0.061951     -0.098297
O	      4.21412      4.34495      2.08641        -0.047571      0.019359     -0.036236
O	      4.33118      2.08709      4.01110        -0.064515      0.073422     -0.143798
O	      6.43134      4.06700      4.07341        -0.056894     -0.013948     -0.024984
O	      6.40115      2.06675      6.17652        -0.031832     -0.005494      0.085568
O	      8.52370      4.22529      6.14698        -0.033041      0.031754      0.094736
O	      1.93275      4.30723      4.24702        -0.055237      0.012560      0.000349
O	      4.19158      6.55564      4.11975        -0.013172     -0.033153      0.033463
O	      4.23005      4.35139      6.25104         0.007543      0.055841      0.235311
O	      6.31210      6.47171      6.29311         0.004688     -0.075922      0.235755
O	      6.30975      4.25585      8.22849        -0.058931      0.087441     -0.008450
O	      8.48828      6.46999      8.19714        -0.128872      0.108359     -0.009675
O	      2.27876      6.24385      6.26813         0.053400      0.038319      0.016568
O	      4.28333      8.40990      6.24193        -0.047843     -0.005602      0.078249
O	      4.44016      6.22543      8.19204         0.118531     -0.183596     -0.045056
O	      6.53458      8.30371      8.27217         0.206775     -0.145893      0.003718
O	      6.38305      6.35853     10.15375         0.016246     -0.019854     -0.194143
O	      8.56097      8.51856     10.17277        -0.010496     -0.027442     -0.223273
