# total energy = -244.18747519 eV
 
CRYSTAL
PRIMVEC
0.030067 6.202389 6.386034 
6.261644 0.014223 6.402065 
4.167649 4.138804 0.016248 
PRIMCOORD
36 1
Li	      6.33301     10.30034      8.57148         0.044537      0.045547      0.012654
Li	      8.33892     10.32224     10.65331        -0.035651     -0.066193      0.012448
Li	      8.33829      4.16526      8.53909         0.005670     -0.033275     -0.046640
Li	      4.20344      4.13267      4.41368         0.056413     -0.031474      0.031377
Li	      4.12292      2.18094      6.36641        -0.000525     -0.014165     -0.034588
Li	     10.40128      8.28210     10.65504        -0.033673      0.040286     -0.009078
Li	      2.28299      4.12955      6.40389         0.043676     -0.020132      0.017523
Li	      4.19361      6.12614      6.45868         0.021696      0.015686      0.055834
Li	      4.17370      4.18006      8.44551        -0.047899      0.046854      0.001250
Ti	      4.23201      8.26704      8.51717         0.090471     -0.137473      0.265673
Ti	      2.14495      6.10470      4.28550        -0.128708      0.146205      0.029076
V	     10.34229      4.12313      6.38669         0.003056      0.018550     -0.037342
V	     10.42058      6.21186      8.53676         0.069798     -0.029971      0.028572
V	      6.20731      4.13944      6.38628         0.129210     -0.047201     -0.185752
Cr	      2.11263      2.12694      4.30881        -0.029647      0.062887      0.020770
Cr	      6.28187      6.20047      8.49618        -0.002817      0.057026      0.039260
Co	      8.40186      8.28667     12.76628         0.082234     -0.177105     -0.072216
Co	      6.24426      2.15247      4.25324         0.190501     -0.136980     -0.045582
O	      2.12751      2.05710      2.23860         0.017751      0.058455      0.159554
O	      4.18640      4.14023      2.05742        -0.011715     -0.058070     -0.038235
O	      4.12701      2.13081      4.13386         0.090867      0.047194     -0.209763
O	      6.28469      4.23130      4.37612        -0.067631     -0.130814      0.091489
O	      6.21279      2.01264      6.48512         0.301337      0.041548     -0.133899
O	      8.35473      4.10938      6.38258        -0.108928     -0.478107      0.037127
O	      2.09440      4.18405      4.30089         0.002316      0.071333      0.027495
O	      4.16903      6.22307      4.14486         0.006020      0.038242      0.100087
O	      4.29233      4.14908      6.41657        -0.018924     -0.024144      0.022572
O	      6.29142      6.18885      6.41425         0.013372      0.105950     -0.027744
O	      6.29310      4.14543      8.43328        -0.033756     -0.048400      0.040337
O	      8.31961      6.20195      8.69500         0.037047      0.011937      0.016418
O	      2.02617      6.22283      6.24971         0.070738      0.407489     -0.018882
O	      4.21624      8.33655      6.54726        -0.399115     -0.067043     -0.064595
O	      4.27739      6.33588      8.52967         0.077813      0.223657     -0.064067
O	      6.18727      8.22670      8.52442        -0.155971     -0.025669      0.044221
O	      6.35713      6.22025     10.57747         0.079699      0.112448      0.037916
O	      8.31256      8.14961     10.72545        -0.359260     -0.025079     -0.103270
