# total energy = -239.25479539 eV
 
CRYSTAL
PRIMVEC
0.027429 6.353159 6.271376 
6.209288 0.041156 6.257690 
4.160433 4.247431 0.006536 
PRIMCOORD
36 1
Li	      6.25592      6.35892     12.41595        -0.009053     -0.026386     -0.014656
Li	      4.14597      2.12318      2.15355        -0.003529     -0.020084     -0.010223
Li	      4.15058      0.18065      4.23926        -0.077599     -0.016918      0.043346
Li	      4.13563      4.22888      4.32548         0.017546      0.021625      0.034408
Li	      4.07427      2.21151      6.17741        -0.010523      0.057633      0.044558
Li	      6.20244      4.32735      6.19939         0.003731      0.028286      0.020167
Li	      0.12579      4.21865      4.22804        -0.017308     -0.055859     -0.043618
Li	      2.08261      6.25998      4.24355         0.008809     -0.011281      0.024782
Li	      2.07584      4.19901      6.11581        -0.022541     -0.027938      0.038250
Ti	      8.40586      8.57258     12.36631         0.245941      0.098927     -0.131662
Ti	      6.21994      4.25077      2.11117        -0.036286     -0.113861      0.110526
V	      2.16396      4.20379      2.13969        -0.078621     -0.020255     -0.003037
V	      4.17727      4.25885      8.29506        -0.019420      0.001261      0.111852
V	      6.22073      6.40147      8.37917         0.000133      0.071828     -0.079670
Cr	      6.10982      2.14241      4.26316        -0.021217      0.108275      0.008933
Cr	      4.16765      6.35779      2.11791        -0.080222      0.087239     -0.003186
Cu	      6.30699      6.44025      4.31984         0.042915     -0.054254      0.028806
Ni	      4.18381      6.34676      6.17647        -0.022768      0.005906     -0.046229
O	      2.01984      2.04904      1.95779        -0.020950     -0.044999     -0.219371
O	      4.20139      4.34605      2.05174         0.040599     -0.039729     -0.010543
O	      4.14821      2.14273      4.18411         0.103164      0.052359     -0.032779
O	      6.22241      4.22246      4.02468         0.018215     -0.111288     -0.143732
O	      6.30911      2.15862      6.26627         0.030427     -0.046146      0.035527
O	      8.29887      4.10665      6.37996         0.062361     -0.092709     -0.067682
O	      2.11542      4.19320      4.04462         0.031689      0.129397     -0.035048
O	      4.30511      6.36264      4.09086        -0.117387     -0.027542     -0.111074
O	      4.13547      4.30623      6.40089         0.049378     -0.113058     -0.114419
O	      6.19706      6.40569      6.44437         0.153354     -0.081841      0.135390
O	      6.22558      4.23704      8.40158         0.151431     -0.098172     -0.041019
O	      8.32379      6.37046      8.36649        -0.051484      0.064441      0.026951
O	      2.10505      6.43196      6.38547        -0.089795      0.076960      0.076603
O	      4.05711      8.43268      6.22989        -0.216015      0.142852      0.000861
O	      4.10610      6.34500      8.33774         0.020926     -0.034807      0.127429
O	      6.27714      8.57335      8.45847        -0.100883      0.130901     -0.005312
O	      6.19625      6.51713     10.34658         0.063628     -0.007319      0.066080
O	      8.22235      8.50226     10.46325        -0.048644     -0.033443      0.178787
