# total energy = -244.09956659 eV
 
CRYSTAL
PRIMVEC
0.018983 6.266512 6.386391 
6.238561 0.033971 6.371383 
4.157213 4.165835 0.024178 
PRIMCOORD
36 1
Li	      4.15839      4.15955      0.05311        -0.021381      0.003060     -0.029884
Li	      4.14649      2.11572      2.14037        -0.003495      0.049807      0.049133
Li	      8.32851      4.24702      8.51984        -0.015896     -0.000728     -0.080247
Li	      6.16636      6.32562      4.25955        -0.036616      0.048187     -0.034022
Li	      8.33660      6.25370      6.49147         0.069099     -0.082181      0.008349
Li	      0.05570      4.13356      4.20038         0.004397      0.003743     -0.068995
Li	      8.34493      6.27217     10.57441        -0.015725     -0.006603     -0.042161
Li	      4.16349      6.26671      6.38375        -0.020394     -0.042652     -0.016358
Li	      4.20432      4.17137      8.50152         0.038169     -0.008253      0.027249
Ti	      2.25015      8.26350      6.44385         0.055623      0.049635     -0.017325
Ti	      6.24633      8.25496      6.40091         0.020375     -0.173720     -0.064031
V	      4.17045      0.07188      4.21006         0.075996      0.005691      0.106771
V	      6.26203      8.31444     10.62907         0.041803     -0.065354      0.028282
V	      4.10422      4.21285      4.23429         0.009988     -0.021625      0.106421
Cr	     10.33231      6.28131      8.53636        -0.182332      0.183906     -0.076846
Cr	      6.22556      4.23236      6.42422        -0.060715     -0.011225      0.085694
Fe	      6.34319      6.25656      8.52456        -0.082840     -0.087928      0.050019
Ni	      2.12625      6.29088      8.48953         0.075160     -0.070188      0.076764
O	      2.01965      2.08716      1.97636         0.049715      0.076616     -0.120597
O	      4.18805      4.22621      2.23242        -0.088550      0.020248     -0.091759
O	      4.23132      2.11903      4.25969        -0.071043      0.022132     -0.047767
O	      6.22444      4.13331      4.34078        -0.035403      0.061576     -0.037907
O	      6.31720      2.20407      6.39223         0.027648     -0.000495      0.021909
O	      8.22932      4.10603      6.29929         0.072997     -0.069503      0.034564
O	      2.07025      4.18506      4.47981        -0.012048     -0.038147      0.199254
O	      4.16627      6.18492      4.14647         0.012204     -0.003982      0.010863
O	      4.10661      4.21334      6.28907        -0.101938      0.001372      0.011027
O	      6.21854      6.32423      6.38232        -0.018372      0.137820     -0.112470
O	      6.22866      4.12696      8.38692        -0.001251     -0.144173     -0.006348
O	      8.34677      6.26704      8.49938         0.245721     -0.000723      0.021223
O	      2.10386      6.32269      6.41363         0.025091      0.084115     -0.060293
O	      4.16096      8.34895      6.42421        -0.064250     -0.012443      0.012278
O	      4.19508      6.27586      8.65272        -0.011463      0.048320     -0.068833
O	      6.26078      8.41468      8.43388         0.006172      0.050672     -0.079963
O	      6.23510      6.36448     10.66655        -0.059483      0.013605      0.101719
O	      8.27611      8.44846     10.79427         0.073036     -0.020583      0.104289
