# total energy = -103.53302083 eV
 
CRYSTAL
PRIMVEC
-0.000931 2.096224 2.100733 
6.167654 -0.012735 -2.091090 
-2.083023 6.312254 -4.223795 
PRIMCOORD
16 1
Li	     -1.96755      6.22945     -4.13809         0.028308      0.006185     -0.008978
Li	      2.01725      2.03064      0.06857        -0.012619     -0.009085      0.003812
Li	      2.07715      4.21253     -2.11693        -0.017226     -0.005677     -0.010189
Li	     -0.11592      6.35691     -2.18134         0.006012      0.022256     -0.000791
Ti	      0.13315      4.19725     -0.00706         0.361843     -0.010810      0.009332
Ti	      1.94436      6.32952     -4.21188        -0.306688     -0.042388      0.037128
Ni	      4.04036      2.10296     -2.11474        -0.051818     -0.064221      0.055268
Ni	      4.09180      4.22055     -4.23666         0.014089     -0.011610      0.021810
O	      4.16358      4.17370     -2.08829         0.012350      0.040720     -0.032794
O	      4.11278      2.05022      0.04249         0.002333     -0.140191      0.115978
O	      2.02896      6.41566     -2.23096        -0.108644      0.093786     -0.104492
O	      1.97791      2.10893     -2.11966        -0.392391      0.006866      0.005696
O	      3.99712      6.26597     -4.18467        -0.052833      0.103635     -0.093713
O	      0.09512      6.30189     -4.21729         0.300722      0.007831      0.002315
O	     -0.01619      4.09579     -2.00343         0.108138     -0.091956      0.093975
O	     -0.03645      2.19942     -0.10864         0.108424      0.094660     -0.094358
