# total energy = -240.24918907 eV
 
CRYSTAL
PRIMVEC
0.036667 6.251957 6.319767 
6.307201 0.005535 6.350984 
4.208144 4.192167 0.000316 
PRIMCOORD
36 1
Li	     10.45166      4.26188      6.42223        -0.019788      0.019233      0.047140
Li	      8.37786      2.14746      6.36706        -0.014578      0.008699      0.026505
Li	      4.14434      2.16290      2.05826        -0.043164      0.042489     -0.046075
Li	      6.31449      2.10704      4.38757         0.034633     -0.026436      0.047348
Li	      6.34656      2.09002      8.37602        -0.000494     -0.002639     -0.020132
Li	      2.14433      4.11450      2.11837        -0.016436     -0.007229      0.041854
Li	      2.05080      2.15410      4.16945        -0.054811      0.052947     -0.046510
Li	      4.34329      2.04279      6.35990        -0.000953     -0.017373      0.050915
Li	      4.26021      8.28474      4.26799        -0.008053     -0.022156      0.053918
Ti	      1.98697      0.15476      2.09205        -0.344156      0.648288     -0.051415
Ti	      4.28023      0.16467      4.31086         0.092072      0.410349      0.260835
V	      2.14207      6.29028      4.24317        -0.011802     -0.076911     -0.070133
V	      6.24964      8.32815      6.29278        -0.021693     -0.005473     -0.096835
V	      8.46710      8.31649      8.46728         0.073995     -0.075572      0.055489
Cr	      6.32454      4.11373      6.29966         0.042523     -0.048332      0.024415
Cr	      6.33765      6.25102      8.42834         0.094160     -0.064517      0.039350
Ni	      4.21446      4.14601      4.21842         0.003226     -0.102292     -0.032372
Ni	      4.23012      6.32104      6.28250        -0.023230      0.010839      0.060352
O	      2.12326      1.96382      2.12187        -0.050723     -0.600697     -0.016469
O	      4.35348      4.16053      2.17394         0.355834      0.035404     -0.141989
O	      4.21901      1.99748      4.21684         0.038156     -0.443192      0.004334
O	      6.40994      4.16147      4.16880         0.106825      0.026928      0.006879
O	      6.30110      2.19923      6.35094         0.057759      0.001131     -0.010031
O	      8.35118      4.17568      6.18461         0.013490      0.049433     -0.283992
O	      2.16129      4.25106      4.29714        -0.129166     -0.023047      0.033453
O	      4.12755      6.20982      4.25310        -0.010631      0.105623     -0.085931
O	      4.24145      4.20388      6.36160        -0.017581     -0.091876      0.083799
O	      6.28927      6.23049      6.41993         0.121038     -0.078954      0.062754
O	      6.28007      4.25345      8.31844        -0.098264      0.077720     -0.008702
O	      8.31489      6.28554      8.54012        -0.028920     -0.102076     -0.027815
O	      2.14926      6.24067      6.42238        -0.108359      0.003843      0.096251
O	      4.34352      8.32789      6.33466        -0.017834      0.158092      0.029348
O	      4.22466      6.20422      8.52823         0.047344      0.076795      0.057127
O	      6.42959      8.32059      8.33496         0.059076      0.055456     -0.001766
O	      6.27878      6.26616     10.48145        -0.116136      0.002311     -0.095336
O	      8.45753      8.33835     10.44885        -0.003357      0.003194     -0.046563
