# total energy = -247.83175442 eV
 
CRYSTAL
PRIMVEC
0.003304 6.277851 6.275215 
6.369343 -0.015420 6.293470 
4.239229 4.190730 -0.003223 
PRIMCOORD
36 1
Li	      6.39838     10.39655      8.46269         0.039341      0.027042      0.010389
Li	      4.32281      8.30749      8.45196        -0.013016     -0.096240      0.041917
Li	      6.19562      2.07361      4.14643        -0.056920     -0.042344     -0.019336
Li	      4.33428      4.15575      4.10716         0.002985      0.005355     -0.025465
Li	      4.23412      2.12104      6.16341        -0.004143     -0.024200      0.037869
Li	      6.39818      4.21101     10.46452        -0.035083     -0.017228     -0.034039
Li	      8.43795      6.23774     10.46319         0.017984      0.016948     -0.034005
Li	      4.24940      6.25511      6.31411        -0.028659     -0.017952     -0.031402
Li	      6.26467      6.28477      8.53739        -0.073156      0.021094      0.068350
Ti	      2.21852      8.26457      6.15882         0.050000      0.021594     -0.419952
Ti	      6.41793      8.26107      6.31705         0.297788     -0.236088      0.207834
V	      2.12333      4.25691      2.17234         0.097502      0.144187     -0.138449
V	      2.14350      2.09153      4.13908         0.167897     -0.226732      0.038643
V	      8.44437      8.41831      8.44806        -0.153842     -0.071190      0.192823
Cr	      6.38063      6.26871     12.53720        -0.091040      0.023536     -0.218829
Cr	      4.24092      6.27335      2.12423         0.050810      0.076065      0.101617
Cr	      6.32392      4.20158      6.24333        -0.014828      0.060175     -0.042009
Co	      4.30663      6.34066     10.44200        -0.366813     -0.008175     -0.147309
O	      2.05656      2.18231      2.00409        -0.096040     -0.005214      0.034416
O	      4.18613      4.28127      2.01290        -0.046044      0.027084     -0.010779
O	      4.15448      2.09370      4.17510         0.124616     -0.164831      0.047734
O	      6.40532      4.27266      4.23064         0.378017     -0.002462     -0.046338
O	      6.53268      2.03289      6.33628         0.039286     -0.039347      0.090990
O	      8.58283      4.07257      6.41445         0.158725     -0.044588     -0.101824
O	      2.12653      4.16370      4.22043         0.033239     -0.031987      0.222241
O	      4.39190      6.29219      4.08058         0.021030     -0.055798     -0.087493
O	      4.08273      4.16517      6.40009        -0.322852      0.018151     -0.307330
O	      6.33152      6.38686      6.22179        -0.028267      0.252147      0.058977
O	      6.36027      4.11521      8.31877        -0.153660      0.001906      0.002423
O	      8.58807      6.25594      8.40465        -0.022428      0.079717      0.006352
O	      2.07909      6.33704      6.24763        -0.103410      0.017481     -0.017678
O	      4.19577      8.42115      6.28717        -0.051034      0.065501     -0.039297
O	      4.23315      6.13237      8.35550         0.054066     -0.008892      0.150218
O	      6.34673      8.35673      8.20564         0.290718      0.012226     -0.103417
O	      6.31658      6.28239     10.56495        -0.287257      0.053156      0.071354
O	      8.49523      8.35329     10.55671         0.124489      0.169903      0.440801
