# total energy = -244.96050270 eV
 
CRYSTAL
PRIMVEC
-0.013841 6.302931 6.424460 
6.321658 -0.025161 6.435519 
4.209063 4.203809 -0.011266 
PRIMCOORD
36 1
Li	      2.14590      2.06415      0.28488         0.015865      0.016842     -0.024872
Li	      1.97392      0.24573      2.09635        -0.009042     -0.023564     -0.048155
Li	      3.95984      2.22251      2.13305         0.058682     -0.003960      0.032655
Li	      4.43494      6.13958      2.22378        -0.008649     -0.000384      0.045345
Li	      2.27213      3.97598      2.20114        -0.028645      0.031796      0.018424
Li	      2.06029      2.13331      4.01295        -0.013466      0.043393      0.012443
Li	      4.11603      4.30549      4.05110        -0.064048      0.045945     -0.150067
Li	      8.44365      6.25037      6.42531         0.012080     -0.020717      0.003656
Li	      4.12123      6.33031      6.36643        -0.050065      0.014730     -0.018836
Ti	      6.21550      2.18625      4.35264        -0.463085      0.272426      0.182005
Ti	      6.33187      6.27332      8.43856         0.110019     -0.039661     -0.307893
V	      6.33022      4.15374      6.46194        -0.001972      0.021613     -0.000330
V	      4.24799      8.28718      4.28441         0.215991     -0.174641      0.191614
V	      2.15019      4.23614      6.40771        -0.009711     -0.043575      0.001155
Cr	      4.19332      4.19439      0.09638        -0.017027     -0.010915      0.012776
Cr	      4.22604     -0.00461      4.29840        -0.050838      0.146198      0.057835
Cr	      8.39925      8.38521      8.56894        -0.035166     -0.038579     -0.098942
Ni	      2.15397      6.25584      4.29571        -0.030010     -0.006916      0.077885
O	      2.09630      2.10063      2.14677         0.032157      0.007930     -0.013700
O	      4.19925      4.20879      1.99996         0.017018     -0.003891      0.045211
O	      4.36570      2.01600      4.25768         0.459343     -0.024751      0.033042
O	      6.40804      4.08008      4.32531         0.001963     -0.259579     -0.020322
O	      6.32811      2.02168      6.25209        -0.003034     -0.013126     -0.301353
O	      8.47155      4.19749      6.26737         0.009960     -0.003876     -0.077368
O	      2.06359      4.21447      4.35703        -0.010675     -0.034151      0.080228
O	      4.15657      6.38771      4.31128         0.099685     -0.002842     -0.180483
O	      4.15469      4.18822      6.59500        -0.007404     -0.012743      0.109910
O	      6.30518      6.32917      6.56178        -0.004717      0.032234      0.423663
O	      6.22663      4.28445      8.62364        -0.097346      0.121032      0.031760
O	      8.24425      6.36248      8.66787        -0.213586      0.051474     -0.120326
O	      2.00838      6.21802      6.36277         0.016300     -0.026864      0.109909
O	      4.30396      8.47347      6.31164         0.054527      0.003642     -0.096508
O	      4.34581      6.20586      8.68905         0.143121     -0.070027      0.045213
O	      6.38129      8.27934      8.64393         0.030781     -0.101441      0.060244
O	      6.26666      6.30206     10.71293        -0.088144      0.024159     -0.066859
O	      8.38271      8.43223     10.60550        -0.070858      0.082790     -0.048961
