# total energy = -251.46445229 eV
 
CRYSTAL
PRIMVEC
0.018424 6.378440 6.339657 
6.202573 0.031924 6.325912 
4.158371 4.266180 -0.001634 
PRIMCOORD
36 1
Li	      2.10888      8.41679      6.42191         0.011761     -0.000174     -0.034697
Li	      2.09068      6.39377      8.33228         0.002972      0.005574     -0.012028
Li	      8.31177      4.39313      8.48507         0.004359     -0.005568      0.023248
Li	      4.03470      4.30232      4.25555         0.010973     -0.019840      0.001621
Li	      8.24543      6.43856      6.49805        -0.000798      0.018860     -0.048916
Li	      2.09929      6.28612      4.18202         0.009612     -0.007187      0.030495
Li	      2.14168      4.36297      6.29984        -0.000604      0.036128     -0.045851
Li	      8.23969      8.36285      8.35408         0.006727      0.012386      0.018412
Li	      6.38524      6.50140      8.37814        -0.009756      0.004552      0.052272
Ti	      6.31065      8.59899     10.50070         0.161396     -0.128067     -0.378002
Ti	      6.23502      4.28832      6.46438         0.022702      0.048729      0.249345
V	      4.18558      6.37411     10.49207         0.030883     -0.064801     -0.013932
V	      2.08895      2.21285      4.22115        -0.003101      0.079314     -0.083263
V	      6.16793      4.34253     10.52224        -0.038018      0.037155      0.001081
Cr	      4.19033      4.28015      0.04561         0.017389     -0.018572     -0.031334
Cr	      4.09532      6.31935      2.12898         0.010253      0.025375      0.054206
Cr	      4.15692      8.54999      8.40232        -0.031681      0.002068      0.000469
Cr	      4.08610      6.37403      6.37728        -0.050211     -0.013274     -0.030437
O	      2.07917      2.09038      2.24651        -0.007734     -0.025360     -0.026746
O	      4.14709      4.26838      2.05390         0.010117     -0.003098      0.053667
O	      4.20311      2.10687      4.10629         0.099502      0.025722     -0.052394
O	      6.25863      4.24007      4.30709        -0.080248     -0.108554      0.083133
O	      6.19514      2.22177      6.28411        -0.019531      0.310742     -0.004146
O	      8.20367      4.27517      6.25447        -0.157310      0.038773      0.059651
O	      1.99576      4.13977      4.26268         0.048195     -0.030273     -0.011280
O	      4.16930      6.48283      4.19446        -0.000879     -0.080754     -0.003316
O	      4.27197      4.34123      6.32681         0.158990      0.081224      0.025371
O	      6.18059      6.26539      6.25576        -0.055902     -0.194498      0.045893
O	      6.22306      4.15792      8.38303        -0.020517     -0.012043     -0.252280
O	      8.37713      6.38719      8.45022         0.061518     -0.001648     -0.009728
O	      2.11628      6.36714      6.33054         0.094586      0.003734     -0.014739
O	      4.13685      8.45101      6.36100         0.007443     -0.208198      0.118295
O	      4.20465      6.55566      8.37990         0.007608      0.041981     -0.071125
O	      6.18319      8.55375      8.60616        -0.049289      0.026259      0.330210
O	      6.22901      6.48055     10.63026         0.044525      0.158246     -0.039555
O	      8.23493      8.58632     10.51016        -0.295931     -0.034912      0.016401
