# total energy = -235.21221295 eV
 
CRYSTAL
PRIMVEC
0.020312 6.290802 6.355506 
6.209588 0.016161 6.360189 
4.147217 4.204875 0.002943 
PRIMCOORD
36 1
Li	      0.03309      6.27198      6.33510         0.051531     -0.021019      0.080228
Li	      8.24103      4.17792      4.27604        -0.042956     -0.025358     -0.063036
Li	      2.09779      4.18595      2.25920         0.004510     -0.037438     -0.047212
Li	      2.13994      2.14573      4.31872        -0.003664     -0.022360      0.013332
Li	      4.08725      2.14926      6.29152         0.011890      0.020365     -0.020522
Li	      6.18777      4.22893      6.27181         0.010547     -0.008731      0.015881
Li	      0.12957      4.24996      4.25684        -0.062184     -0.026708      0.041145
Li	      2.13538      4.19412      6.26519         0.000702      0.034083      0.106982
Li	      4.11136      4.19719      8.39035        -0.042515      0.024814     -0.106942
Ti	     10.26821      6.30219      8.53370        -0.077068     -0.120941      0.118373
Ti	      6.28099      6.13160      8.42765        -0.174719     -0.131208     -0.194836
V	      8.27102      2.27323      6.36087         0.068125     -0.059112      0.143391
V	      4.14845      2.13375      2.15663        -0.040981     -0.031764     -0.105837
V	      6.13464      2.07217      4.26483         0.005731      0.152082      0.028018
V	      4.20295      6.26788      6.30967        -0.255984      0.497589     -0.047799
Co	      6.24702      4.19375      2.17680         0.036339      0.067467     -0.099907
Cu	      4.09230      4.17614      4.34191         0.102727     -0.094695     -0.109233
Cu	      2.06452      6.24396      4.31514        -0.020926      0.072844     -0.095137
O	      2.15552      4.32253      4.27578         0.000264     -0.026930     -0.014339
O	      2.03139      2.15670      2.05201         0.047742     -0.072768      0.075516
O	      4.15576      4.31537      2.14241        -0.053783      0.107085      0.089818
O	      4.14083      1.96616      4.14142        -0.010449     -0.117243      0.092274
O	      6.14249      4.06308      4.19829        -0.026430      0.051534     -0.389464
O	      6.28495      2.09732      6.45696        -0.019584     -0.009537     -0.008095
O	      8.32734      4.02650      6.30110        -0.030574      0.010120     -0.000963
O	      4.18566      6.45552      4.08462         0.065614      0.192397     -0.217462
O	      4.14808      4.36601      6.29668        -0.005980     -0.556795      0.179891
O	      6.20350      6.32817      6.47884         0.094765      0.004460      0.075134
O	      6.22020      4.24418      8.44890         0.057858      0.151392      0.054745
O	      8.33470      6.32601      8.33782         0.055346     -0.020520     -0.125517
O	      2.18866      6.46910      6.49882        -0.113016     -0.041391      0.514191
O	      4.10137      8.36726      6.47869         0.033166      0.073232     -0.080303
O	      4.26612      6.31612      8.41027         0.138164     -0.088286      0.112994
O	      6.17163      8.29667      8.52826         0.027472      0.052636     -0.037696
O	      6.22512      6.31122     10.41493         0.066968     -0.041219      0.057634
O	      8.16049      8.28441     10.76210         0.101355      0.041923     -0.035249
