# total energy = -236.29258990 eV
 
CRYSTAL
PRIMVEC
-0.001827 6.381643 6.196688 
6.320182 -0.010465 6.205604 
4.212471 4.259431 -0.006033 
PRIMCOORD
36 1
Li	      0.03986      6.33827      6.14316         0.002365     -0.041277     -0.027668
Li	      6.31185     10.55346      8.31186         0.005722     -0.029329     -0.018198
Li	      4.29597      8.51822      8.30853         0.017668      0.019245     -0.024974
Li	      4.15099      0.07892      4.13629        -0.021249      0.014471     -0.023801
Li	      6.19428      2.22759      4.11825        -0.039334      0.078967     -0.032980
Li	      4.24528      4.16653      4.17811        -0.007886     -0.019734      0.028956
Li	      0.06911      4.28502      4.18686         0.002925      0.017168      0.014936
Li	      2.08195      6.28702      4.21391        -0.019535     -0.077097      0.004070
Li	      2.07861      4.31834      6.13735         0.008214      0.045587      0.002283
Ti	      2.19731      8.42318      6.01772         0.238395     -0.116069     -0.243393
Ti	      4.22927      6.25375      2.13088         0.070547     -0.375073      0.164501
V	      2.08943      4.26099      2.10580         0.016064     -0.015649     -0.039656
V	      2.18612      2.08774      4.15795         0.014899      0.026445     -0.081999
V	      8.38149      8.54029      8.30421        -0.005827      0.042844     -0.004462
V	      6.24113      6.47324      8.35918        -0.019338      0.020592      0.097313
Co	      6.31933      4.22126      6.09661        -0.033095      0.135004      0.038119
Ni	      4.25789      2.12150      6.14126         0.016164     -0.003189      0.006601
Ni	      4.17946      6.38699      6.15524         0.005323      0.021368     -0.017387
O	      1.97736      2.17315      2.02670        -0.199064     -0.038166     -0.016750
O	      4.11415      4.38912      2.05685         0.035538      0.343653      0.018169
O	      4.13890      2.13029      4.16335         0.003847     -0.000155     -0.187384
O	      6.29382      4.37018      4.11078        -0.012065      0.011404     -0.033043
O	      6.38014      2.11053      6.31533         0.104946      0.002738      0.110401
O	      8.40846      4.17713      6.27679         0.090379     -0.143360      0.038137
O	      2.08208      4.14812      4.05635         0.019187      0.012016      0.011366
O	      4.26689      6.39721      4.04445        -0.009789     -0.024043     -0.324882
O	      4.24761      4.27372      6.32392        -0.054581     -0.122403      0.025293
O	      6.35122      6.37422      6.30391         0.010459     -0.049020      0.082704
O	      6.31077      4.25364      8.27636        -0.030128     -0.007364      0.034136
O	      8.47363      6.38151      8.22934         0.054681      0.006378      0.155562
O	      2.11588      6.52835      6.18052        -0.082488      0.227001      0.017286
O	      4.06388      8.49983      6.19561        -0.287581      0.040041     -0.012027
O	      4.32688      6.34022      8.22084         0.051916      0.022113      0.119714
O	      6.40600      8.40784      8.26941         0.000914     -0.022966     -0.036658
O	      6.35472      6.35483     10.11053         0.024368     -0.000563     -0.074861
O	      8.41206      8.52263     10.35736         0.027438     -0.001577      0.230576
