# total energy = -238.07247134 eV
 
CRYSTAL
PRIMVEC
0.018125 6.325245 6.189603 
6.335665 0.023997 6.183448 
4.231508 4.220630 0.008408 
PRIMCOORD
36 1
Li	      4.22709      4.21716      0.13186         0.006496      0.012975      0.025045
Li	      4.24153      8.44389      8.15775        -0.042626     -0.010315     -0.042421
Li	      6.30692      2.09569      8.16941        -0.018464      0.027376     -0.077682
Li	      8.50019      4.29154      8.15850         0.028537     -0.001669     -0.021836
Li	      6.32170      4.31179      6.29535        -0.011261     -0.039107      0.025534
Li	      6.36714      8.39781      6.31315         0.055074     -0.024024      0.018792
Li	      4.32043      6.30330      6.33285        -0.022379      0.012505      0.039447
Li	      4.23261      4.23276      8.09987        -0.010333     -0.036777     -0.065037
Li	      6.33845      6.34533      8.09160         0.036978      0.020088     -0.014591
Ti	      6.32649      8.42406     10.25648        -0.069290      0.006264     -0.010633
Ti	      4.19423      4.32512      4.13714        -0.036581      0.031149      0.338843
V	      2.09153      2.11688      0.11115         0.005142      0.037882     -0.044972
V	      4.19410      0.04298      4.07647         0.048639     -0.099040      0.115380
V	      0.11434      4.18458      4.08043        -0.013576      0.083022      0.040333
V	      8.46197      6.37383     10.25344        -0.060309     -0.099190      0.042016
Co	      6.35201      6.32074      4.16024        -0.020699      0.031289     -0.043695
Co	      8.40630      6.34311      6.32696         0.242352      0.004059     -0.015025
Co	      2.14101      6.33078      8.20271         0.028341     -0.066988     -0.052443
O	      2.11599      2.04018      2.09756        -0.016805      0.071875      0.243404
O	      4.30663      4.18844      2.23886         0.025704     -0.010640      0.160002
O	      4.34135      2.11462      4.13747         0.031622      0.125226      0.089597
O	      6.27784      4.13171      4.19774        -0.080184     -0.070063      0.010274
O	      6.38352      2.09863      6.07733        -0.359387      0.030260     -0.051332
O	      8.48248      4.17169      6.12944        -0.075244     -0.024907     -0.048678
O	      2.13448      4.25122      4.11716         0.107907      0.019484     -0.048335
O	      4.17227      6.32100      4.13317         0.129175     -0.132619     -0.010829
O	      4.23382      4.19597      6.02899        -0.074901     -0.010439     -0.336239
O	      6.39420      6.31724      6.11456         0.376220      0.022287      0.072086
O	      6.31689      4.23072      8.49895        -0.018089      0.021854     -0.052251
O	      8.47654      6.35802      8.34504        -0.078205      0.024585     -0.342756
O	      2.12585      6.43636      6.05277        -0.004927      0.034467      0.042629
O	      4.16567      8.44406      5.96802         0.052925      0.010572     -0.038929
O	      4.15234      6.35716      8.35298        -0.012016      0.034715     -0.090978
O	      6.38056      8.50497      8.38629        -0.035803     -0.065903      0.230017
O	      6.36754      6.36666     10.27143        -0.042674      0.074319     -0.010542
O	      8.45363      8.51741     10.35893        -0.071358     -0.044571     -0.074198
