# total energy = -232.96276557 eV
 
CRYSTAL
PRIMVEC
0.032521 6.259385 6.256771 
6.302025 0.025723 6.263366 
4.220212 4.196292 -0.001664 
PRIMCOORD
36 1
Li	     10.40446      4.20565      6.28589        -0.028512      0.021724      0.015452
Li	      8.44002      2.22360      6.28612         0.008418     -0.028243     -0.011325
Li	      8.36727      4.27329      4.32808         0.005029     -0.007197      0.023625
Li	      6.40919      6.22172      4.29716         0.012213     -0.000231     -0.151307
Li	      4.25760      4.15190      4.22327         0.007885     -0.013578     -0.023741
Li	      8.25466      6.23224      6.19657         0.031091      0.009736     -0.010709
Li	      6.41975      4.35920      6.16968        -0.017133     -0.094582     -0.007451
Li	      6.33145      8.20646      6.25454        -0.002140      0.079046     -0.046936
Li	      6.33094      6.32222      8.18044         0.011015     -0.003382      0.037033
Ti	      2.12871      6.22954      4.33997         0.097965     -0.027719      0.362933
Ti	      4.17871      4.29376      8.20107        -0.038193      0.199497     -0.115188
V	      6.20773      2.20473      4.31147         0.095639      0.001480      0.045154
V	      6.32736      2.08131      8.20428         0.013958     -0.093224      0.029370
V	      8.42650      4.19968      8.23309         0.039318      0.031728      0.171845
V	      4.21090      8.41510      4.25760        -0.075183     -0.128330     -0.072297
Cu	      4.37165      6.29166      6.23355        -0.190999     -0.064942     -0.072546
Ni	      2.09914      0.03205      2.08093        -0.084180      0.023574     -0.074959
Ni	      4.27111      8.34086      8.30528        -0.017565     -0.000763     -0.036124
O	      6.26751      6.28973      6.21723         0.134631     -0.017366      0.014359
O	      2.10148      2.13810      2.10901        -0.082740      0.040420     -0.004756
O	      4.23915      4.21047      2.04326        -0.067942      0.005355      0.000004
O	      4.38538      2.05431      4.11503        -0.138132      0.030632      0.181293
O	      6.34408      4.03064      4.15863        -0.029231      0.008838      0.106135
O	      6.31020      2.13098      6.22957        -0.015923      0.010997     -0.055305
O	      8.41494      4.22109      6.36018        -0.035783      0.012422     -0.225631
O	      2.04054      4.30482      4.06995         0.121751      0.117542      0.072293
O	      4.09375      6.34624      3.97810        -0.023539      0.026122     -0.131552
O	      4.19045      4.20205      6.39064         0.010443     -0.088927      0.097103
O	      6.22057      4.16565      8.44038        -0.026126      0.139722     -0.095386
O	      8.47779      6.31617      8.39213        -0.067386      0.081493     -0.002487
O	      2.27408      6.26889      6.19038        -0.037239     -0.026600     -0.306795
O	      4.25948      8.32372      6.20152         0.065158      0.103592      0.164213
O	      4.19438      6.17821      8.47409         0.134559     -0.189134      0.154208
O	      6.41819      8.39671      8.45352         0.168938     -0.139154     -0.041952
O	      6.47780      6.32826     10.47731         0.024213      0.004537      0.037060
O	      8.40602      8.27558     10.38992        -0.004279     -0.025084     -0.025634
