# total energy = -233.94368000 eV
 
CRYSTAL
PRIMVEC
0.015937 6.446185 6.256795 
6.201781 0.026337 6.245507 
4.155500 4.310708 -0.002606 
PRIMCOORD
36 1
Li	      2.17147      6.45141      8.31015         0.043298     -0.028388     -0.013960
Li	      8.27270     10.76308     10.38434        -0.048798      0.010112     -0.043622
Li	      0.05662      2.17202      2.08642         0.041126      0.096942      0.034553
Li	      2.08024      2.16595      4.17141        -0.013488     -0.011090      0.035021
Li	      4.10432      2.19944      6.21064        -0.069188      0.093189     -0.034290
Li	      4.15915      8.60317      4.21480         0.033547     -0.017608      0.004993
Li	      6.24167      8.60535      6.27386         0.046847     -0.076301      0.048846
Li	      4.12665      6.44850      6.28680         0.024146     -0.122973      0.045244
Li	      4.11007      4.33183      8.31049        -0.035237     -0.058663     -0.074653
Ti	      2.18364      6.54694      4.21416         0.238175      0.091328      0.085585
Ti	      6.06755      6.47079      8.27607        -0.511744      0.042829     -0.374300
V	     10.32574      4.33943      6.24497         0.174440      0.126727     -0.154508
V	      2.11696      4.30469      2.11019        -0.201529      0.292782      0.176218
V	      6.22615      4.30372      6.23316        -0.058903      0.150740      0.106865
V	      4.19265      4.28161      4.16014         0.021052     -0.242594      0.025846
Cu	      2.11697      8.57218      6.29765        -0.051707     -0.005039     -0.183387
Cu	      4.14046      8.56865      8.31317         0.026794     -0.156011      0.171677
Ni	      6.22127      8.60704     10.38189        -0.019977      0.076171     -0.034435
O	      2.12512      2.33913      2.03940        -0.038003     -0.349404      0.029776
O	      4.10907      4.49635      2.08727         0.178963      0.199667      0.025053
O	      4.15017      2.33298      4.06422        -0.085238      0.225444      0.044188
O	      6.11056      4.32689      4.13167        -0.101676      0.025317      0.134991
O	      6.29216      2.20341      6.18502         0.009334     -0.132764      0.081301
O	      8.28112      4.49829      6.26344         0.203436      0.133760     -0.011061
O	      2.24505      4.36498      4.17844         0.006337      0.091688     -0.087122
O	      4.07514      6.37057      4.20563        -0.361705     -0.021192     -0.003186
O	      4.25603      4.25491      6.12641         0.016865      0.014716     -0.107535
O	      6.19114      6.36466      6.36854         0.020311      0.054152      0.318477
O	      6.30529      4.39412      8.31301        -0.128971      0.017726     -0.105299
O	      8.17436      6.39068      8.49099         0.026913      0.125737      0.208763
O	      1.98515      6.31042      6.16698        -0.064274     -0.029392     -0.179502
O	      4.07951      8.75080      6.32541        -0.033422     -0.058504     -0.177583
O	      4.21943      6.30504      8.38344         0.434517     -0.118837     -0.028779
O	      6.17985      8.41500      8.34494         0.102276     -0.132155     -0.072944
O	      6.27139      6.46223     10.41890         0.088533     -0.065922     -0.028332
O	      8.30367      8.46619     10.44438         0.086950     -0.242190      0.137099
