# total energy = -233.81367384 eV
 
CRYSTAL
PRIMVEC
0.012089 6.353716 6.318276 
6.232292 0.044882 6.285695 
4.185524 4.244477 -0.000660 
PRIMCOORD
36 1
Li	      2.11035      6.34677      8.40194         0.007080      0.008086      0.008985
Li	      6.28642      8.49924     10.45623         0.019664      0.007356      0.008831
Li	      8.33170      4.36278      8.45339        -0.001266      0.009539      0.024684
Li	      6.26568      6.42141      4.31657         0.008990      0.002555      0.025516
Li	      4.07897      4.28315      4.34227        -0.092076      0.022574     -0.001648
Li	      8.34076      6.38514     10.40582        -0.024090      0.005961     -0.006498
Li	      2.21474      4.15653      6.29252        -0.033573     -0.029819     -0.014703
Li	      8.25194      8.42558      8.31472        -0.027656     -0.027442     -0.006352
Li	      6.36843      6.43651      8.28686         0.020221      0.007602     -0.001165
Ti	      4.32100      8.53089      8.48910         0.353936     -0.025380      0.139918
Ti	      0.13835      4.20456      4.07581         0.436633     -0.091137     -0.196046
V	      0.07069      6.32958      6.30518         0.021913      0.084041      0.013849
V	      2.08123      2.10196      0.02461        -0.039057      0.007700      0.025402
V	      8.22142      4.25562      4.10897        -0.128990      0.049962      0.003406
V	      4.14980      6.32758      2.17088        -0.010311     -0.022933     -0.002939
Ni	      8.26444      6.47149      6.34497         0.057727     -0.042126     -0.130594
Ni	      6.19519      4.31765      6.34116         0.064696     -0.064155      0.010678
Ni	      4.20179      6.29831      6.31824        -0.017373     -0.048110      0.003124
O	      2.06396      2.14777      2.00276         0.066006     -0.019871     -0.022234
O	      4.16156      4.18639      2.02415         0.016301     -0.088456     -0.065835
O	      4.17031      2.05044      4.09730         0.024649     -0.018102     -0.241005
O	      6.44493      4.24001      4.23596         0.057237     -0.008024     -0.103339
O	      6.22342      2.11567      6.37132         0.086047     -0.005063     -0.013522
O	      8.38637      4.24262      6.17896         0.074116     -0.104367      0.000352
O	      1.94972      4.28282      4.22343        -0.466471     -0.040070     -0.023794
O	      4.17321      6.47914      4.19638         0.018779      0.176574     -0.080154
O	      4.20232      4.26830      6.27873        -0.164604     -0.033793      0.066246
O	      6.25209      6.30770      6.31645         0.003928      0.154963     -0.008584
O	      6.24998      4.21861      8.48412         0.017825      0.053949      0.347978
O	      8.43841      6.39579      8.37344        -0.014460     -0.023508      0.133702
O	      2.04288      6.48207      6.26702        -0.055362      0.012309      0.001927
O	      4.16769      8.47266      6.35674         0.026219      0.016185     -0.010441
O	      4.15148      6.52293      8.47069         0.022007      0.100562      0.092996
O	      6.13047      8.53044      8.42478        -0.403939     -0.003430     -0.016938
O	      6.10516      6.27978     10.57288         0.023726     -0.043856      0.050848
O	      8.40400      8.62850     10.56751         0.051529      0.019721     -0.012653
