# total energy = -250.68790326 eV
 
CRYSTAL
PRIMVEC
-0.013702 6.382176 6.400486 
6.353182 -0.010273 6.397355 
4.214475 4.232110 0.013803 
PRIMCOORD
36 1
Li	      8.38336      2.16149      6.51387        -0.037268      0.051186      0.049054
Li	      6.20616      4.35493      2.35025        -0.010921     -0.014511     -0.057111
Li	      6.37150      2.30910      4.29417         0.011599     -0.016717      0.011030
Li	      0.16532      2.03645      2.13437         0.038279      0.023569     -0.050620
Li	      2.17822      4.12000      2.21959         0.048301     -0.047595      0.090253
Li	      6.27910      6.22635      4.14786         0.003580      0.027521     -0.001280
Li	      4.37428      4.27336      4.11417         0.028329     -0.001945     -0.016031
Li	      6.36069      4.18920      6.24793        -0.001804      0.019281      0.001863
Li	      2.13588      6.33545      4.25574         0.013999     -0.030199     -0.010660
Ti	      4.30616      2.05493      6.24125         0.337859     -0.314262     -0.076559
Ti	      4.10798      6.31842      6.28954        -0.332266      0.080911     -0.290163
Ti	      6.40754      6.34575      8.57722         0.181770     -0.067244      0.115118
Mn	      0.06855      0.06234      0.03527         0.016558      0.018802     -0.043132
V	      4.09571      2.16806      2.22652        -0.050208      0.088477     -0.035490
V	      0.02738      4.22379      4.25038         0.006458     -0.029847      0.033557
V	      2.16128      4.20941      6.35137        -0.096252      0.052966     -0.053617
Cr	      8.43569      8.51492      8.59391         0.009704     -0.065474      0.042413
Co	      8.28942      4.19667      4.33287        -0.014320     -0.008740      0.036155
O	      2.19868      2.11019      2.11258         0.038367     -0.042903      0.042233
O	      4.24543      4.09720      2.14050         0.007279     -0.018719      0.029236
O	      4.19020      2.15164      4.36145         0.035530      0.002533      0.210658
O	      6.36692      4.23678      4.27034         0.103872      0.038096      0.016435
O	      6.17583      2.15153      6.41821        -0.337873      0.063318     -0.065407
O	      8.44165      4.40492      6.43286        -0.028006      0.305280     -0.055478
O	      1.94890      4.29803      4.30564        -0.014376     -0.005918     -0.101655
O	      4.21416      6.40334      4.40881        -0.010174     -0.029243      0.266564
O	      4.22818      4.29966      6.51785         0.095396      0.054735     -0.010257
O	      6.31846      6.34802      6.54258         0.006857     -0.081618      0.054309
O	      6.23455      4.36620      8.58682        -0.038053      0.191226     -0.051362
O	      8.32328      6.49696      8.41585        -0.215690      0.013417      0.057878
O	      2.22429      6.33686      6.39565         0.377142      0.020551     -0.053523
O	      4.24550      8.35097      6.43834        -0.096504     -0.146610     -0.012464
O	      4.33168      6.36746      8.42306         0.027022     -0.075001      0.029925
O	      6.33602      8.34294      8.54695         0.036448     -0.110121      0.064501
O	      6.28626      6.28409     10.54800        -0.049483      0.023204     -0.164441
O	      8.53447      8.48281     10.56473        -0.091154      0.031597     -0.001932
