# total energy = -254.95100068 eV
 
CRYSTAL
PRIMVEC
0.011115 6.215845 6.401041 
6.319420 0.002260 6.410099 
4.197016 4.133957 0.017417 
PRIMCOORD
36 1
Li	      4.12874      4.07697      0.09406        -0.018394     -0.015109      0.018761
Li	      8.43887      2.19416      6.43696        -0.019453      0.051475      0.032693
Li	      4.21804      8.30506      8.51386         0.004885      0.012459     -0.058968
Li	      8.38764      4.13011      4.34581         0.013930      0.045303      0.086639
Li	      2.11360      4.05693      2.07976         0.006184      0.015341      0.011864
Li	      4.24034      4.08270      4.30766         0.063966      0.030118     -0.022415
Li	      6.35923      4.14542      6.39441         0.030764      0.045733      0.001795
Li	      2.12685      4.14382      6.38766         0.010547     -0.016372     -0.072336
Li	      4.19955      4.18704      8.52272        -0.053813     -0.019566     -0.004958
Ti	      6.28663      2.05902      8.43964         0.072272     -0.147403      0.008931
Ti	      8.46157      6.17711      6.46447        -0.067369     -0.052454     -0.000591
Ti	      4.15464      8.30100      4.38294         0.107947      0.034509      0.163409
Mn	      2.24800      2.05799      4.24360         0.000034      0.054406     -0.008272
V	      2.12284      6.19688      8.47732         0.026692     -0.057940     -0.046788
V	      2.12584      6.19327      4.28827        -0.003818     -0.061703      0.042880
V	      4.22323      6.10816      6.41137        -0.047261     -0.073828     -0.043709
Cr	      6.33491      2.11561      4.32023         0.006231     -0.018815      0.012700
Cr	      6.27594      6.20479      8.53823         0.062246      0.017494     -0.023392
O	      1.99087      2.02290      2.10221        -0.045038      0.097595     -0.098386
O	      4.24015      4.27985      2.12021         0.027973      0.068935      0.001771
O	      4.32339      2.09919      4.40764         0.075061     -0.047716     -0.018616
O	      6.34343      4.08194      4.13127         0.003851     -0.067729      0.036104
O	      6.29959      2.12735      6.41324        -0.016447     -0.027979      0.020175
O	      8.41206      4.32661      6.44860         0.025068      0.105728      0.016409
O	      1.92448      4.13488      4.26230        -0.157115     -0.032572     -0.016805
O	      4.21383      6.26727      4.23928         0.029922      0.041798      0.065113
O	      4.22085      4.10544      6.40115         0.005642     -0.080339     -0.001713
O	      6.29484      6.21088      6.51561         0.083139      0.007207      0.022926
O	      6.26915      4.11106      8.66794        -0.005151     -0.011916      0.015612
O	      8.36381      6.22324      8.54341         0.030130     -0.016969     -0.074875
O	      2.22887      6.15611      6.45382        -0.146385      0.049175      0.036970
O	      4.18603      8.21745      6.27025        -0.028890      0.084078     -0.160421
O	      4.25760      6.22384      8.43403        -0.010605      0.002065      0.041929
O	      6.29340      8.23711      8.71342        -0.003375     -0.051984     -0.035533
O	      6.32648      6.19912     10.59065        -0.109144     -0.040866      0.053366
O	      8.43159      8.29175     10.73017         0.045775      0.077838     -0.002271
