# total energy = -250.82587904 eV
 
CRYSTAL
PRIMVEC
0.039263 6.250794 6.349255 
6.373980 0.037935 6.350583 
4.254578 4.173303 0.020230 
PRIMCOORD
36 1
Li	      6.43339      6.28099     12.57933         0.011116     -0.005717     -0.026783
Li	      6.38765      4.17940      2.16983        -0.001544     -0.007259     -0.027485
Li	      6.36480      2.15376      4.24058        -0.023745      0.015803     -0.051850
Li	      2.11939      4.20431      2.18758         0.018988      0.014086      0.043498
Li	      4.24671      4.22580      4.33454        -0.015078     -0.011565      0.016427
Li	      6.36346      4.22732      6.30565        -0.008536     -0.008126      0.009413
Li	      0.13112      4.19913      4.24905        -0.012467     -0.026793      0.002460
Li	      2.11489      6.11074      4.28619        -0.028726     -0.003062     -0.002568
Li	      4.26922      6.20379      6.29235         0.004569      0.028246      0.035038
Ti	      8.51855      8.26718     12.59692        -0.010190     -0.320020     -0.096321
Ti	      4.24458      2.28442      2.08732         0.062875      0.146982     -0.188309
Ti	      4.28619      6.23279      2.21133         0.147119     -0.328262      0.040896
Mn	      4.33967      2.09657      6.31045        -0.038834      0.054889     -0.018515
V	      8.48200      4.16705      4.27138         0.006099      0.052291     -0.043846
V	      6.35876      6.29727      4.26964        -0.003837      0.090401      0.062835
V	      8.51685      8.38012      8.49565        -0.243410      0.177960     -0.049505
V	      6.40946      6.21837      8.49226        -0.004213      0.072143     -0.116136
Co	      2.14057      4.25777      6.31458        -0.052811     -0.280720     -0.005975
O	      2.14316      2.13975      2.07140        -0.026110      0.028915      0.046540
O	      4.27060      4.18651      2.13294        -0.045787     -0.002077      0.022417
O	      4.19403      2.10242      4.11116         0.002457      0.000841     -0.050568
O	      6.50217      4.27257      4.22744        -0.092163      0.014949      0.011381
O	      6.51091      2.10998      6.48724         0.076219      0.025224      0.089450
O	      8.55452      4.09642      6.24613        -0.006129     -0.063308      0.045409
O	      2.12974      4.08310      4.29638         0.108962      0.098014      0.517885
O	      4.36708      6.22409      4.12512        -0.061595      0.016584     -0.101481
O	      4.25573      4.21242      6.51785        -0.108065     -0.023301     -0.111140
O	      6.41971      6.27289      6.41829        -0.009765      0.304832     -0.033045
O	      6.34162      4.17948      8.48190        -0.011541     -0.138268      0.031919
O	      8.58226      6.34034      8.54076         0.136341      0.033532      0.023283
O	      2.15664      6.36924      6.32895         0.004512      0.031589     -0.083322
O	      4.16103      8.33491      6.49773         0.062032      0.038467      0.145206
O	      4.31434      6.26612      8.53470         0.004424      0.008100      0.037728
O	      6.32169      8.31101      8.45970         0.035079      0.013965     -0.378894
O	      6.28996      6.27933     10.44789         0.098152     -0.035674      0.093636
O	      8.49234      8.34712     10.65128         0.025602     -0.013662      0.110325
