# total energy = -100.58948286 eV
 
CRYSTAL
PRIMVEC
-0.000058 2.087501 2.087561 
16.779043 -0.000130 -0.000339 
0.000039 2.087505 -2.087566 
PRIMCOORD
16 1
Li	      0.07461      2.08780     -2.08619         0.027610      0.000171     -0.002181
Li	      1.76713      2.08740      0.00051        -0.041817      0.000334     -0.000582
Li	      8.65187      2.08749      2.08545        -0.019955     -0.000009      0.001089
Li	     12.53849      0.00055      0.00030         0.028057      0.000290      0.000129
Ti	      6.43551      2.08708     -0.00251         0.454369      0.000269      0.000355
Ti	     14.65237      2.08803      0.00126         0.255116     -0.000190     -0.000843
Ni	      3.96810      2.08714      2.08632         0.031892      0.000318      0.000494
Ni	     10.69854      2.08783     -0.00082        -0.074361     -0.000067      0.000343
O	     12.74085      2.08799      0.00032         0.203141     -0.000668     -0.000586
O	     14.62190      2.08798     -2.08658        -0.020108     -0.000529     -0.001143
O	      8.24068      2.08737     -0.00186        -0.461632      0.000089      0.000074
O	     10.53891      2.08784      2.08674         0.033027     -0.000679      0.001177
O	      4.40855      2.08715     -0.00143         0.115431      0.000295      0.000424
O	      6.30765      2.08711      2.08525         0.042368     -0.000155      0.002229
O	     16.48651      2.08776      0.00072        -0.355310      0.000112     -0.000733
O	      2.06114      2.08734     -2.08741        -0.217828      0.000421     -0.000246
