# total energy = -254.04963937 eV
 
CRYSTAL
PRIMVEC
0.058105 6.430608 6.270377 
6.329380 0.074700 6.253690 
4.254745 4.311175 0.014804 
PRIMCOORD
36 1
Li	     10.42276      4.32060      6.22381         0.018254     -0.012541      0.009606
Li	      8.53788      2.40861      6.21617         0.015373      0.017573     -0.028995
Li	      8.55050      4.39277      4.35868         0.025251      0.078186     -0.003088
Li	      4.25905      4.30196      4.23326         0.037661     -0.041431      0.044154
Li	      8.44200      6.39236      6.22723        -0.019968      0.019888     -0.010466
Li	      6.47741      4.38234      6.25668        -0.040264     -0.015301     -0.045926
Li	      4.24853      8.63774      4.28911        -0.021128     -0.005387     -0.004898
Li	      4.36214      6.53901      6.21855         0.007199      0.020476     -0.013764
Li	      6.40392      6.44153      8.31918         0.011405      0.010023     -0.006208
Ti	      6.35674      4.33535      2.09737        -0.023177      0.002122      0.145611
Ti	      2.13705      6.40784      4.28315        -0.098367      0.054356      0.094569
Ti	      4.32452      4.44746      8.26164         0.016011      0.186250     -0.254398
Mn	      4.28016      8.55574      8.33763         0.039800     -0.057077      0.025404
Mn	      6.39307      6.42490      4.28420        -0.020941     -0.041276      0.012583
V	      6.30620      2.17912      4.34074        -0.037663      0.062075     -0.061959
V	      6.31322      2.20515      8.23644         0.009128     -0.013067     -0.008515
V	      6.35988      8.56075      6.27078         0.048450     -0.022143      0.005570
Cr	      8.43534      4.39999      8.26943         0.010335     -0.057872     -0.011411
O	      2.06859      2.20230      2.07458        -0.058251      0.002060     -0.108850
O	      4.20750      4.42203      2.05381         0.028788      0.000695      0.020438
O	      4.34273      2.16315      4.14708        -0.028855     -0.000875      0.041653
O	      6.33802      4.29038      4.01146        -0.022990     -0.041647     -0.146707
O	      6.35985      2.24667      6.26114         0.002960      0.001795      0.077931
O	      8.44820      4.37684      6.36045         0.011929      0.008403      0.018513
O	      2.14489      4.41357      4.13387         0.005673      0.129299     -0.075780
O	      4.13701      6.45999      4.06742        -0.118813     -0.033453      0.008783
O	      4.17949      4.33374      6.40388         0.073674     -0.002196      0.262463
O	      6.39192      6.62821      6.30817        -0.012085     -0.101681      0.058921
O	      6.32486      4.28422      8.33160        -0.048017      0.022481      0.050301
O	      8.49662      6.46523      8.44071        -0.048198      0.013207      0.037619
O	      2.22234      6.36586      6.27726        -0.008194      0.049032     -0.107626
O	      4.41488      8.61733      6.27341        -0.107277      0.009926     -0.017760
O	      4.24547      6.35429      8.37413         0.009070     -0.183401     -0.025512
O	      6.50252      8.69272      8.39669         0.115127      0.029432      0.042363
O	      6.54607      6.53941     10.46585         0.142412     -0.020263      0.007208
O	      8.42886      8.49896     10.34404         0.085691     -0.067669     -0.031827
