# total energy = -254.56313887 eV
 
CRYSTAL
PRIMVEC
0.019633 6.251406 6.405916 
6.407977 0.010002 6.415408 
4.281993 4.184155 -0.003256 
PRIMCOORD
36 1
Li	      2.17239      8.30065      6.39754         0.024841     -0.002068     -0.000774
Li	      4.36374      8.30051      8.49028         0.039424     -0.004482     -0.040535
Li	      6.41850      8.34266     10.64403        -0.000311     -0.041828     -0.050347
Li	      6.38502      6.26688      4.45010        -0.033260     -0.021749      0.030993
Li	      8.40065      6.28090      6.45716        -0.013569     -0.050717      0.065368
Li	      8.55976      6.28785     10.69187         0.002488      0.027408     -0.014949
Li	      6.39449      8.18749      6.44100        -0.024202      0.061477      0.027755
Li	      4.45781      6.32500      6.38868        -0.003130      0.030709     -0.034028
Li	      6.42823      6.34521      8.39410         0.019142      0.019355      0.056737
Ti	      2.19636      6.23356      8.47869         0.097979     -0.117018     -0.233406
Ti	      4.17936      4.02090      4.36555        -0.104500     -0.185841      0.280519
Ti	      4.29571      8.33610      4.32507        -0.074110      0.079429      0.265290
Mn	      6.42885      4.25558      6.39006         0.050404     -0.076686      0.017877
Mn	      8.48452      8.29484      8.46196        -0.011347      0.015287     -0.039744
V	      6.47979      6.29280     12.78766        -0.025416     -0.051195      0.008135
V	      4.27188      0.07575      4.29245         0.020166     -0.003392      0.038588
V	      4.28404      6.26562      2.14611        -0.041319     -0.030381     -0.061471
V	      2.16386      4.13800      2.12824         0.042799      0.003131     -0.029128
O	      2.03812      2.00167      2.13385         0.011428     -0.130753      0.031856
O	      4.32856      4.15949      2.16575         0.068256      0.043224      0.078777
O	      4.25236      2.14303      4.26688        -0.002057      0.264500      0.034568
O	      6.30382      4.18415      4.17654        -0.017372     -0.047397     -0.063717
O	      6.45344      2.03196      6.54061        -0.002111      0.018759     -0.007191
O	      8.68906      4.18769      6.31965         0.000817     -0.001230     -0.046496
O	      2.20138      4.17626      4.24229         0.052272      0.001999      0.112891
O	      4.27588      6.33694      4.21400         0.024362      0.035445     -0.005606
O	      4.26397      4.19110      6.20893        -0.061990     -0.056580     -0.322576
O	      6.41590      6.26175      6.46857        -0.006323     -0.012324     -0.057178
O	      6.44883      4.16844      8.66085        -0.033169     -0.006698      0.120058
O	      8.71161      6.23685      8.56730         0.002367      0.063987     -0.001906
O	      2.06642      6.26783      6.56039         0.033571     -0.001428      0.214891
O	      4.32625      8.40953      6.23578        -0.014611      0.016848     -0.303456
O	      4.12940      6.31018      8.67046        -0.135851      0.035577     -0.026505
O	      6.40815      8.50270      8.56134        -0.028486      0.199771      0.002171
O	      6.40351      6.19439     10.71994        -0.004461     -0.082176     -0.057080
O	      8.74549      8.47490     10.67308         0.147279      0.007034      0.009618
