# total energy = -244.87544704 eV
 
CRYSTAL
PRIMVEC
-0.029614 6.377269 6.219195 
6.260659 0.021004 6.169131 
4.188736 4.232857 -0.000829 
PRIMCOORD
36 1
Li	      4.15517      4.22770      0.03127        -0.016261      0.037445      0.015236
Li	      6.21500      2.26345      8.30872         0.022629     -0.022147     -0.003509
Li	      8.24309      4.30083      8.29600         0.057708     -0.015949     -0.030718
Li	      6.20932      6.39771      4.14313         0.011277      0.005563     -0.048669
Li	      4.08831      4.33231      4.12779        -0.036977     -0.003261      0.028541
Li	      6.23653      4.29059      6.40672        -0.002678     -0.038434      0.052242
Li	      2.14163      4.17573      6.14603         0.000684      0.000050      0.001187
Li	      4.30675      4.21900      8.20160        -0.010595      0.000828      0.007532
Li	      6.29488      6.20005      8.21856        -0.012024      0.005330      0.036552
Ti	      8.17224      2.22393      6.15581        -0.048397      0.190861     -0.012967
Ti	      6.17551      4.18055      2.03492        -0.292487     -0.042521      0.143673
Ti	      4.18756      6.38809     10.33539         0.021862      0.021593      0.141357
V	      4.18076      8.50394      8.27506        -0.042534      0.024775      0.020903
V	      8.25433      6.47975      6.27489         0.199785     -0.115293     -0.109499
V	      8.31622      6.36598     10.23985         0.031126     -0.097582     -0.146985
Cr	      0.04294      4.21504      4.11352         0.108089     -0.132869      0.003134
Co	      4.24429      6.29353      6.21054         0.164627     -0.183733     -0.115046
Cu	      6.18256      2.19685      4.14403        -0.224855      0.090066      0.083121
O	      2.17505      2.02842      1.96426        -0.017407     -0.024675     -0.003156
O	      4.31292      4.19497      2.09971         0.262233      0.068421     -0.025490
O	      4.11536      2.04205      4.11347        -0.023728      0.001265      0.030752
O	      6.45605      4.30429      3.95032        -0.063774      0.000319     -0.077132
O	      6.28575      2.13615      6.23684         0.051378      0.017845     -0.008132
O	      8.37035      4.28078      6.12826        -0.020911     -0.003425      0.025707
O	      2.01944      4.38953      4.16893         0.013408     -0.019444      0.048185
O	      4.11571      6.41855      4.19709         0.114902      0.056947      0.159075
O	      4.24472      4.07818      6.15958        -0.022258      0.257395      0.030627
O	      6.44103      6.32626      6.18821        -0.344152      0.000335      0.015522
O	      6.27953      4.22818      8.36761        -0.011729      0.055131     -0.155068
O	      8.33046      6.40806      8.21296         0.016686     -0.019408      0.182046
O	      2.03624      6.51848      6.19412         0.003505     -0.103957      0.012413
O	      4.01301      8.46765      6.24292         0.076945     -0.029008     -0.031589
O	      4.10738      6.39819      8.26926        -0.036843     -0.045084     -0.179558
O	      6.17131      8.64185      8.12083         0.100982      0.094963     -0.076949
O	      6.18689      6.27110     10.30575        -0.070752      0.002461      0.010838
O	      8.44367      8.49997     10.34139         0.040537     -0.034799     -0.024174
