# total energy = -247.98350324 eV
 
CRYSTAL
PRIMVEC
-0.016855 6.289979 6.209480 
6.353878 -0.016682 6.209420 
4.228994 4.186156 -0.004237 
PRIMCOORD
36 1
Li	      0.01784      6.25183      6.15439         0.059885     -0.001695     -0.067443
Li	      2.18915      8.32022      6.14653         0.076067     -0.092313     -0.064367
Li	      4.20294      8.28240      8.22362        -0.031066     -0.059423      0.000831
Li	      6.30801      6.29010      4.20395         0.016502      0.001897      0.020201
Li	      6.33210      4.24246      6.23922         0.038011      0.062054     -0.010140
Li	     10.49670      8.38375     10.37180        -0.038128      0.039479      0.024679
Li	      2.09502      6.33882      4.21963         0.015612      0.008723      0.041810
Li	      4.22576      6.31712      6.20748        -0.081627     -0.026827      0.006121
Li	      6.27474      6.26178      8.27121        -0.049984     -0.004669      0.026627
Ti	      8.44414      4.15318      8.23323        -0.157797      0.078232     -0.287206
Ti	      4.21681      4.21480      4.18291         0.151794      0.211707      0.051201
Ti	      6.16225      8.33246      6.23043        -0.326081      0.208087      0.004434
V	      2.09165      6.31311      8.23995        -0.077122     -0.042514     -0.043946
V	      8.48065      4.19222      4.17450         0.075315      0.074258     -0.040051
V	      6.36991      8.31933     10.38491        -0.117656     -0.163453      0.129210
Cr	      6.36515      2.10490      8.23283        -0.010319      0.078272      0.090801
Co	      8.44681      6.28457      6.21580        -0.002589      0.164045     -0.016777
Co	      4.26672      4.17068      8.27474         0.081131     -0.029464     -0.062581
O	      2.05942      2.18027      2.03845        -0.079491      0.269446     -0.062582
O	      4.20240      4.25288      2.05476        -0.242412      0.084916      0.123579
O	      4.28379      2.17009      4.07082         0.080955      0.137778     -0.021156
O	      6.34712      4.12719      4.12143        -0.006294      0.038057      0.280094
O	      6.28499      2.10017      6.21885        -0.576040     -0.022511     -0.053951
O	      8.44091      4.20091      6.25528         0.042451      0.147510      0.122380
O	      2.19668      4.16932      4.14907         0.236187     -0.038974      0.020231
O	      4.27252      6.12069      4.03581         0.033186     -0.391722     -0.047230
O	      4.20533      4.20553      6.15907        -0.061943     -0.211408     -0.167618
O	      6.40245      6.42479      6.23380         0.407186      0.067751     -0.045851
O	      6.49427      4.12003      8.29655         0.065854     -0.070384      0.033879
O	      8.56980      6.18196      8.34437         0.119100     -0.229881     -0.055833
O	      2.12242      6.16334      6.24297        -0.003166     -0.237993      0.006914
O	      4.34286      8.34917      6.18178         0.391516     -0.060240     -0.012207
O	      4.13014      6.23590      8.36750         0.018347      0.097708      0.031960
O	      6.31396      8.39999      8.24086         0.127476     -0.017941     -0.048889
O	      6.20931      6.36191     10.33342        -0.107472     -0.025429      0.099077
O	      8.40439      8.40533     10.32886        -0.067389     -0.043079     -0.006204
