# total energy = -243.59223736 eV
 
CRYSTAL
PRIMVEC
0.013466 6.319633 6.301773 
6.251542 0.001565 6.313793 
4.155836 4.209151 0.013005 
PRIMCOORD
36 1
Li	      2.12815      2.16995      0.03161        -0.059083      0.093241     -0.065022
Li	      4.19808      8.42004      8.26400         0.022382      0.008975     -0.064051
Li	      8.29353      4.25808      4.25387        -0.040856      0.017859      0.096001
Li	      6.28923      2.12379      8.35112         0.000917     -0.004126     -0.015014
Li	      4.20893      4.17918      4.21244        -0.058271     -0.026954     -0.004739
Li	      6.25913      4.21254      6.43311         0.083164     -0.033950      0.009220
Li	      6.16838      8.36527      6.39868         0.001452     -0.006904     -0.016087
Li	      4.26847      4.27019      8.35543         0.002670     -0.001820      0.057216
Li	      6.15039      6.27336      8.38486        -0.011415      0.015420      0.093572
Ti	      2.17913      6.30449      8.35571         0.186672     -0.316302      0.085995
Ti	      4.17280      2.24278      6.41764         0.032424      0.094101     -0.308757
Ti	      2.16129      6.32529      4.28829        -0.054409     -0.084912      0.203780
V	      6.20221      2.12713      4.17882         0.035099     -0.004082      0.055148
V	      8.35743      4.18578      8.35992        -0.146157     -0.063973      0.744662
V	      6.26183      6.27709      4.22879         0.030751      0.066366      0.147597
Cr	      6.21618      4.25524     10.50841         0.085103      0.075067     -0.116503
Cu	      4.26273      6.28251      6.49873         0.023848     -0.039078      0.094633
Ni	      4.10019      4.17154      0.03410        -0.096714      0.065297     -0.094896
O	      2.08774      2.03723      2.16806        -0.006824      0.463286     -0.006694
O	      4.16554      4.20812      2.09296         0.054088      0.021259     -0.090365
O	      4.19029      2.09327      4.34085        -0.094629      0.048971      0.030842
O	      6.20083      4.25118      4.07649         0.056897     -0.034416     -0.124153
O	      6.15347      2.06615      6.19117        -0.114632      0.144204      0.054951
O	      8.30547      4.26965      6.40107        -0.040328      0.216641     -0.745020
O	      2.03496      4.23086      4.15111        -0.120533      0.130836      0.235101
O	      4.09962      6.40060      4.16808        -0.067332      0.024096     -0.067491
O	      4.19003      4.07177      6.35098        -0.023983     -0.262703      0.019171
O	      6.37586      6.30976      6.20415         0.042822      0.076394      0.065815
O	      6.35704      4.23124      8.50196         0.127937     -0.075956      0.016566
O	      8.35541      6.27555      8.42636         0.057533     -0.409628     -0.012916
O	      2.01029      6.29493      6.22637         0.146851      0.022208     -0.110875
O	      4.13241      8.47516      6.16908         0.023801     -0.220248      0.077576
O	      4.04124      6.32126      8.49236        -0.188291      0.022258     -0.061846
O	      6.21448      8.56882      8.49153         0.004805      0.177785     -0.054150
O	      6.38287      6.30274     10.49198         0.080424     -0.037993     -0.115056
O	      8.30817      8.26954     10.50589         0.023816     -0.161220     -0.014212
