# total energy = -246.35944891 eV
 
CRYSTAL
PRIMVEC
0.000087 6.328243 6.384464 
6.278987 -0.003530 6.388126 
4.182631 4.217754 0.001014 
PRIMCOORD
36 1
Li	      4.06239      4.21132      0.18573        -0.061958     -0.024603      0.088352
Li	      2.15513      2.14747      0.18179         0.006360      0.064418      0.014570
Li	      2.07588      0.16197      2.09212        -0.036148      0.015571     -0.011143
Li	      3.97611      2.16442      2.14381        -0.010334      0.010664      0.034312
Li	      4.16064      0.06006      4.27778        -0.031997     -0.012588      0.035908
Li	      2.22173      4.03881      2.00981        -0.015809     -0.019043     -0.049723
Li	      2.14016      2.09987      4.06569        -0.008475      0.026369     -0.010250
Li	      8.37253      6.22862      6.37318         0.024255     -0.050435     -0.019681
Li	      2.13004      6.36716      4.28732         0.023239     -0.021243      0.030426
Ti	      6.26990      2.09957      4.39685        -0.068244      0.126459      0.377988
Ti	      1.97884      4.32658      6.31417        -0.181881      0.347052     -0.288400
Ti	      6.32496      6.31371      8.54640         0.018816     -0.118352     -0.069416
V	     10.43775      8.44736     10.65289        -0.028192     -0.012242     -0.118280
V	      4.18447      4.24075      4.15714         0.019898      0.070809      0.003419
V	      6.40459      4.24279      6.33587         0.135334     -0.062705      0.033704
Cr	      8.32982      8.43694      8.48686         0.138495      0.072951     -0.033211
Fe	      0.11572      2.03193      2.13615        -0.318066     -0.019659     -0.030153
Ni	      4.16482      6.33887      6.39944        -0.043751      0.058718     -0.028685
O	      2.03969      2.10008      2.12890         0.283622      0.021771     -0.011030
O	      4.15050      4.18646      2.23691        -0.003322     -0.008038      0.014146
O	      4.35828      2.21208      4.24832         0.173254     -0.118356     -0.001292
O	      6.27533      4.12423      4.31964        -0.010414     -0.191362     -0.023830
O	      6.30277      2.11983      6.25917         0.042809      0.029877     -0.372994
O	      8.27322      4.23056      6.37220         0.014492      0.001827      0.011313
O	      2.09981      4.18776      4.41891        -0.003502      0.024327      0.292043
O	      4.15811      6.29104      4.34428        -0.002065     -0.064182     -0.105082
O	      4.17885      4.22449      6.39797        -0.017830     -0.090496      0.047330
O	      6.27110      6.36714      6.52278         0.138214     -0.013933      0.081501
O	      6.18473      4.28102      8.45516        -0.027216      0.172670      0.031430
O	      8.28028      6.40244      8.50539        -0.123309      0.094143     -0.010896
O	      2.10809      6.15569      6.42992        -0.118259     -0.347864     -0.005176
O	      4.26459      8.41329      6.37501         0.173479      0.076882      0.089882
O	      4.32747      6.23022      8.46586         0.058089     -0.035905      0.099558
O	      6.33620      8.31654      8.47006         0.000558     -0.050696      0.043250
O	      6.26326      6.42827     10.52262         0.019238      0.087350     -0.092522
O	      8.28341      8.44852     10.47862        -0.159379     -0.040156     -0.047369
