# total energy = -250.87114463 eV
 
CRYSTAL
PRIMVEC
0.052840 6.334384 6.315166 
6.419181 0.034189 6.333666 
4.277834 4.233831 0.024084 
PRIMCOORD
36 1
Li	      2.13879      2.09623      0.06828         0.056424      0.038815     -0.003224
Li	      4.30362      8.39309      8.40447         0.038184     -0.035320     -0.078595
Li	      0.07951      2.13922      2.14522         0.022180     -0.013201      0.029565
Li	      6.39152      6.35422      4.24663        -0.003537      0.007567      0.061986
Li	      4.25324      4.31488      4.27426        -0.050121      0.019669      0.045050
Li	      6.39654      4.31687      6.38628         0.018935      0.088402      0.049247
Li	      6.43828      8.42443      6.28952        -0.026791     -0.048602     -0.080010
Li	      4.42419      6.32198      6.31257         0.123466     -0.037072      0.013592
Li	      6.37495      6.32531      8.35974        -0.098163     -0.009968     -0.061649
Ti	      4.31049      4.18275      0.13283        -0.168348     -0.501823      0.255705
Ti	      6.36905      2.24431      4.21956        -0.182584      0.338961     -0.246896
Ti	      8.45195      6.50272      6.43322        -0.596237      0.189177     -0.124546
V	      2.23786      6.42075      8.39106        -0.004354     -0.316781     -0.002631
V	      4.33140      8.39069      4.19979         0.211045      0.028752      0.141301
V	      4.28522      4.22706      8.38002        -0.008245      0.100500     -0.068708
Cr	      2.22825      6.29460      4.23759        -0.013133     -0.191292     -0.016860
Fe	      4.35626      6.37959     10.52318        -0.030163     -0.001753      0.097031
Fe	      2.13830      4.08314      2.12177         0.067018     -0.226821     -0.228334
O	      2.15109      2.02065      2.10594        -0.033053      0.478885      0.057178
O	      4.37660      4.23291      2.00995         0.011052      0.032330     -0.137922
O	      4.44275      2.16460      4.35232         0.206728      0.050863      0.016078
O	      6.44004      4.14006      4.20256        -0.041429     -0.267807      0.079399
O	      6.35332      2.04113      6.20887         0.026387     -0.017978     -0.015191
O	      8.69940      4.34880      6.30848         0.136172      0.126035     -0.110781
O	      2.13504      4.31229      4.18384        -0.080418      0.149723      0.306769
O	      4.20059      6.44414      4.29270        -0.029915     -0.055438     -0.055212
O	      4.32919      4.16036      6.32056         0.010830     -0.289783     -0.096277
O	      6.60944      6.35550      6.33415         0.560948      0.048146      0.046933
O	      6.39606      4.26442      8.54768        -0.038526     -0.021307     -0.094367
O	      8.61465      6.33552      8.43583         0.033382     -0.087599      0.044718
O	      2.04379      6.35655      6.27131        -0.022272      0.012482     -0.082687
O	      4.29684      8.62293      6.23520         0.015013      0.354165      0.044713
O	      4.24677      6.34154      8.47483         0.017637      0.001108     -0.071517
O	      6.42338      8.53067      8.56847        -0.018872     -0.014429      0.222847
O	      6.57165      6.38116     10.60242        -0.010929      0.101105     -0.026208
O	      8.53874      8.39256     10.54240        -0.098309     -0.029714      0.089503
