# total energy = -242.64030207 eV
 
CRYSTAL
PRIMVEC
0.002016 6.293743 6.246794 
6.387341 -0.013827 6.262601 
4.246096 4.194002 0.003164 
PRIMCOORD
36 1
Li	     10.60995      4.18504      6.26258        -0.005758     -0.007297      0.028778
Li	      8.49405      2.12953      6.22077        -0.037713      0.082600      0.001336
Li	     10.57876      6.37873      8.47717        -0.038707     -0.031431     -0.072015
Li	      8.39145      4.21699      8.40342        -0.008535     -0.007164     -0.004852
Li	      6.14795      6.35289      4.13131        -0.080963      0.050369      0.006234
Li	      6.36498      4.07201     10.27033        -0.009326     -0.012623      0.008186
Li	      4.25356      6.29343      6.10030        -0.002847      0.014699      0.002668
Li	      4.42683      4.11953      8.40216        -0.004791      0.004237     -0.009038
Li	      6.48672      6.13631      8.41831         0.053734      0.008861      0.007264
Ti	      2.15370      6.37905      8.23197        -0.264710     -0.390205     -0.095130
Ti	      4.16217      2.08119      2.04455         0.326057      0.290178     -0.128871
Ti	      6.36459      8.28976      6.18510        -0.003783     -0.099923     -0.084104
V	      6.45263      8.32774     10.41116         0.053601      0.047862      0.022928
V	      8.52231      6.26451      6.39928         0.005588      0.011548     -0.069699
V	      6.36828      4.22053      6.35773         0.015800      0.069854     -0.095452
Cr	      4.34060      6.22885     10.43900        -0.025903      0.079136      0.130353
Ni	      4.23528      4.28163      4.15257        -0.003205     -0.115741      0.007367
Ni	      8.58107      6.30759     10.34863        -0.144813      0.003635      0.095454
O	      2.19941      2.05139      2.08603         0.297511     -0.205172     -0.092950
O	      4.37548      4.08897      2.13721        -0.059806      0.101802     -0.237258
O	      4.33325      2.03353      4.15084         0.023706     -0.054497     -0.117210
O	      6.45347      4.14625      4.14622         0.113440      0.027675     -0.107550
O	      6.32300      2.21149      6.15210         0.062830     -0.068153      0.011677
O	      8.45019      4.26647      6.18626         0.073394     -0.075094     -0.048000
O	      2.14511      4.22634      4.31011        -0.113915     -0.116019      0.091312
O	      4.19189      6.25644      4.17611         0.097894      0.160130     -0.037716
O	      4.17786      4.10751      6.23506         0.046018      0.034200      0.097101
O	      6.40371      6.32916      6.25118        -0.105800     -0.077699      0.000968
O	      6.38330      4.19844      8.23061         0.018368     -0.033352      0.172629
O	      8.51546      6.26678      8.30184         0.001604      0.007089      0.117918
O	      2.14105      6.16673      6.34447        -0.031452      0.206967      0.279628
O	      4.40601      8.36059      6.39069        -0.095316      0.024495      0.325151
O	      4.16334      6.35951      8.44479        -0.165722      0.108048     -0.141248
O	      6.29823      8.47032      8.33101         0.039744     -0.012553     -0.031312
O	      6.35191      6.35952     10.43626        -0.036912     -0.101911     -0.003053
O	      8.47570      8.42130     10.44833         0.010689      0.075452     -0.031494
