# total energy = -251.12191486 eV
 
CRYSTAL
PRIMVEC
-0.002781 6.239866 6.217081 
6.346713 -0.022373 6.236566 
4.233270 4.175110 -0.017440 
PRIMCOORD
36 1
Li	      6.26559      4.13818      2.14981        -0.023209     -0.029860      0.019280
Li	      4.28207      2.16343      2.10488         0.077721      0.039983      0.044262
Li	      2.09618      4.20939      2.16655        -0.031926     -0.016031      0.048702
Li	      4.20867      4.13595      4.04724         0.008546     -0.091191      0.001744
Li	      6.33633      4.15535      6.25812         0.010667     -0.032149      0.018225
Li	      6.35572      4.20226     10.29893         0.008090      0.004726     -0.020909
Li	      8.37737      6.20164     10.26756        -0.115803      0.046919     -0.033509
Li	      8.49859      8.27677      8.36056        -0.014944     -0.008154      0.044858
Li	      6.41150      6.15835      8.36640         0.045862     -0.042206     -0.008871
Ti	      4.17364      6.32955      2.19624        -0.141705      0.455849     -0.088700
Ti	      2.16302      4.19277      6.28073         0.011311      0.042570      0.478562
Ti	      4.16683      6.19715      6.33061         0.023557     -0.054537      0.481501
V	      4.25346     10.37877      6.20971        -0.128431      0.149288     -0.004632
V	      2.13425      8.32357      6.22949        -0.092803      0.111490     -0.138917
V	      2.10617      2.06450      4.09233         0.052422     -0.068784     -0.064134
Cr	      4.25128      6.21609     10.27622        -0.035328     -0.037474     -0.036730
Cr	      8.46158      6.26696      6.23978         0.126632     -0.060036     -0.097287
Co	      6.36388      8.34213     10.23377         0.052757      0.163771      0.096798
O	      1.99885      2.09083      2.12519        -0.074611     -0.017010      0.088149
O	      4.23877      4.27744      2.00226        -0.025314     -0.005991     -0.160507
O	      4.22429      2.02875      4.20804         0.254223     -0.019964      0.051992
O	      6.47070      4.22292      4.12945         0.032417     -0.231615     -0.000283
O	      6.28129      2.00326      6.30689        -0.054407      0.006600      0.159571
O	      8.55082      4.21621      6.09010         0.057130      0.117543     -0.035612
O	      2.11267      4.05528      4.29220        -0.021395      0.040256      0.069819
O	      4.22909      6.21823      4.15983         0.008497      0.003577     -0.079585
O	      4.19888      4.14220      6.21330        -0.088691      0.086501     -0.005395
O	      6.36857      6.26963      6.15594        -0.040845      0.042822     -0.032825
O	      6.36815      3.98885      8.29233        -0.044227     -0.454170      0.088169
O	      8.55586      6.21887      8.23031         0.216849     -0.022232     -0.017097
O	      2.12585      6.22282      6.17626         0.074663     -0.197337      0.020186
O	      4.26387      8.29448      6.21904         0.123120     -0.059099     -0.050814
O	      4.24108      6.22922      8.19794        -0.022215      0.020633     -0.436689
O	      6.33580      8.31645      8.14588         0.020066      0.013374     -0.458213
O	      6.28085      6.25481     10.39458         0.099164      0.174983      0.098375
O	      8.40526      8.41358     10.37505        -0.347836     -0.073049     -0.039484
