# total energy = -102.97907459 eV
 
CRYSTAL
PRIMVEC
4.116524 0.000483 -0.000143 
2.059374 4.129469 -6.331093 
2.058450 4.126279 2.108212 
PRIMCOORD
16 1
Li	      4.11562      8.20167     -4.23404         0.000710      0.025365      0.002027
Li	      2.05576      1.83171      0.07969        -0.001393     -0.005918      0.010171
Li	      6.17740      4.17410     -2.10473         0.000414     -0.009308     -0.007014
Li	      4.11546      4.14770     -4.23823         0.000759     -0.007278     -0.029957
Ti	      4.11901      2.13246     -1.94540        -0.001351     -0.051555      0.142077
Ti	      6.14496      6.14717     -4.13499        -0.030735     -0.009727      0.025333
Ni	      4.11837      4.12396      0.00611        -0.001387      0.000419      0.027515
Ni	      4.11692      6.26516     -2.12127        -0.001758     -0.007350      0.011206
O	      4.11770      4.05577     -2.07500        -0.001554     -0.166957     -0.093245
O	      6.17684      6.23197     -2.18485        -0.001389     -0.016477     -0.064887
O	      4.11672      2.06554     -0.05540         0.000991     -0.120093     -0.173254
O	      6.17586      4.36974     -0.04289        -0.001732      0.172664      0.018714
O	      2.05798      2.09473     -2.14273         0.000587      0.106912      0.094773
O	      6.18020      4.25071     -4.25016        -0.003550      0.210627      0.003964
O	      4.13026      6.15936     -4.20621         0.034583     -0.000375     -0.114750
O	      6.18071      8.05523     -4.31543         0.006803     -0.120949      0.147325
