# total energy = -252.51569893 eV
 
CRYSTAL
PRIMVEC
0.003132 6.326494 6.342960 
6.239834 0.008042 6.337821 
4.156067 4.210330 0.009410 
PRIMCOORD
36 1
Li	      6.22853      0.08864      6.36472         0.055989     -0.023493      0.001486
Li	      6.09747      4.21302      2.16064         0.015432      0.053209      0.053712
Li	      6.18716      2.13579      4.34661        -0.010913     -0.005980     -0.056233
Li	      6.25758      2.03506      8.32254         0.023193     -0.055583     -0.001693
Li	      4.18630      4.18174      4.25270         0.073588      0.011614      0.007172
Li	      4.36216      2.10438      6.21014         0.008623     -0.000146      0.002802
Li	      6.22229      4.08096      6.32213        -0.033963      0.012045     -0.017551
Li	      0.02191      4.23284      4.25825        -0.053725     -0.007087     -0.010452
Li	      2.07123      4.29290      6.28531        -0.013992      0.036469      0.086584
Ti	      6.19582      6.28635      4.35077        -0.016730     -0.312384     -0.292588
Ti	      8.29519      8.39707      8.41646        -0.134399     -0.233516     -0.160288
Ti	      6.27372      6.38995      8.39154         0.229972     -0.026544     -0.055199
V	      8.21846      2.11762      6.31722         0.058002     -0.125938      0.220314
V	      4.18198      2.17624      2.15145        -0.064675     -0.150231      0.055414
V	      8.30599      4.23236      8.42910        -0.056728      0.356786     -0.121235
Cr	      2.08665      6.27399      4.25196         0.019674      0.034682     -0.082257
Cr	      4.17364      6.31728      6.34838        -0.052596     -0.040265      0.089191
Fe	      8.36290     10.51973     10.63026        -0.042784      0.038237     -0.057879
O	      2.05882      2.21487      2.17750         0.076810     -0.630320      0.046393
O	      4.08874      4.10827      2.10942        -0.281340      0.081548      0.040624
O	      4.07763      2.13000      4.16542        -0.039692      0.080016      0.088876
O	      6.27339      4.40985      4.23191        -0.054460      0.199586      0.092198
O	      6.31038      2.08328      6.32616        -0.012953      0.024482     -0.072768
O	      8.34705      4.11177      6.39162        -0.007899      0.109722      0.546404
O	      2.06050      4.21085      4.20215        -0.022008      0.089031     -0.518092
O	      4.14635      6.30478      4.34173         0.017478      0.000044      0.046274
O	      4.16721      4.28659      6.51132         0.021465      0.023067      0.088731
O	      6.22918      6.38282      6.33434         0.033154      0.002773      0.040867
O	      6.21669      4.35175      8.42670         0.087607     -0.048272      0.045278
O	      8.35817      6.31286      8.52049        -0.017253      0.627946      0.107315
O	      2.14938      6.37246      6.23943        -0.017701     -0.014304     -0.020937
O	      4.08166      8.31050      6.47613         0.003546      0.058553     -0.120645
O	      4.16492      6.31478      8.41346         0.029422     -0.055295     -0.026381
O	      6.26457      8.42717      8.46207         0.099271     -0.038388     -0.000521
O	      6.29282      6.31954     10.42737         0.038855     -0.053996     -0.007643
O	      8.32170      8.32942     10.50325         0.041730     -0.018070     -0.037276
