# total energy = -248.39470173 eV
 
CRYSTAL
PRIMVEC
0.010032 6.351267 6.216409 
6.287713 0.005845 6.220656 
4.192536 4.237646 0.003245 
PRIMCOORD
36 1
Li	      6.21139      0.15760      6.15549        -0.027923      0.074730      0.025658
Li	      8.26017      2.18518      6.19848        -0.011237      0.007046     -0.013951
Li	      6.25614      2.15823      4.35499        -0.012711      0.051369      0.021603
Li	      6.37271      6.31967      4.25733        -0.003098     -0.017913     -0.027626
Li	      4.21343      4.16713      4.28960         0.022102     -0.040330      0.006224
Li	      4.14950      2.14384      6.15271        -0.034418     -0.006269      0.031773
Li	      6.27475      4.23456      6.12359        -0.013032      0.001959      0.006942
Li	      2.22345      4.11565      6.15665         0.039320     -0.053545     -0.003012
Li	      6.37359      6.35012      8.17732         0.011919     -0.016243     -0.042343
Ti	      6.24774     10.53405      8.25612        -0.043396     -0.045688     -0.016307
Ti	      4.29443      8.53012      8.31954         0.103252      0.017813      0.181406
Ti	      4.24462      8.49938      4.27040         0.056626      0.036349     -0.021419
V	      6.31875      2.08813      8.19720        -0.081331      0.018697      0.117859
V	      4.33299      6.28550      6.17170        -0.116033     -0.103008      0.025133
V	      8.32968      8.44611      8.25464         0.044617      0.025837     -0.023229
Cr	      8.37411      4.25250      4.23273         0.025559     -0.013084      0.029681
Cr	      8.34406      4.25895      8.20746         0.048219      0.058520      0.034513
Ni	      2.05105      6.37421      4.23465        -0.006865      0.067980      0.023666
O	      2.10557      2.16636      2.06720         0.111774     -0.022974     -0.032013
O	      4.14597      4.18609      2.07035         0.052611     -0.123928     -0.032854
O	      4.21329      2.03567      4.00283        -0.015209     -0.011940     -0.189438
O	      6.37597      4.22357      3.97854        -0.020825      0.034963     -0.080556
O	      6.27110      2.12358      6.32440         0.008696      0.003782     -0.129084
O	      8.36557      4.26311      6.21815         0.002508     -0.025690     -0.013499
O	      1.97494      4.29229      4.04432        -0.090150     -0.076408      0.048794
O	      4.13390      6.47607      4.10865         0.131985      0.099434      0.086465
O	      4.18578      4.34903      6.20106        -0.002502     -0.003530     -0.095769
O	      6.21941      6.37512      6.20622         0.107613     -0.042268     -0.026566
O	      6.33833      4.17142      8.40524         0.022179      0.041375     -0.004451
O	      8.47086      6.29447      8.37263        -0.062542     -0.081531     -0.080063
O	      2.17365      6.38419      6.31159         0.034044     -0.023867      0.167390
O	      4.21812      8.39914      6.21792         0.011786      0.001911     -0.001539
O	      4.16086      6.40770      8.34944         0.008697      0.050435     -0.078698
O	      6.24291      8.48338      8.26954        -0.231037      0.082770     -0.049314
O	      6.24282      6.21316     10.39139        -0.104960     -0.075444      0.062819
O	      8.48739      8.53378     10.38137         0.033763      0.108690      0.091805
