# total energy = -254.42162069 eV
 
CRYSTAL
PRIMVEC
0.029530 6.289305 6.320682 
6.337082 0.002401 6.348058 
4.213629 4.199691 0.013282 
PRIMCOORD
36 1
Li	      6.28190      0.08023      6.22040        -0.023971     -0.002285      0.009277
Li	      6.32946      4.17220      2.24286         0.012248      0.009359      0.010902
Li	      6.32784      2.06974      4.33235         0.027364     -0.001966      0.038465
Li	      8.45083      4.25748      8.48281        -0.005218      0.033089      0.013368
Li	      4.28405      4.16156      4.26912         0.025517      0.005524     -0.049511
Li	      4.32108      2.02821      6.31434         0.012974     -0.048121      0.012301
Li	      6.39125      4.09685      6.27670         0.014975     -0.000771     -0.034764
Li	      6.40895      4.28484     10.52531        -0.049626     -0.003534      0.011208
Li	      8.27583      6.23613     10.56530        -0.006404      0.029480     -0.014210
Ti	      4.21313      2.28752      2.16383         0.088933      0.113746      0.021944
Ti	      6.29362      2.12334      8.42105        -0.162578      0.091906     -0.134454
Ti	      4.23546      6.24071      6.19004        -0.019861     -0.173204     -0.104510
V	      8.46306      8.40400     12.64712        -0.007282      0.058162      0.056524
V	      8.45268      4.19756      4.32285         0.071672     -0.049030     -0.107912
V	      6.39061      6.20593      8.45330         0.055530     -0.001501     -0.034010
Cr	      2.15710      2.11627      4.19663        -0.003734      0.003992     -0.025460
Cr	      2.11001      4.25396      6.25269         0.000755      0.027061      0.040177
Cr	      8.40610      8.36825      8.52712         0.026092      0.009762     -0.012244
O	      2.11938      2.11884      2.11272        -0.013764      0.005674      0.066128
O	      4.23385      4.16701      2.13820         0.016882     -0.154678      0.035415
O	      4.19145      2.10308      4.15273         0.026213     -0.007421     -0.046945
O	      6.45399      4.32277      4.24593        -0.106199     -0.058045      0.028407
O	      6.37170      2.05538      6.51064        -0.088070      0.022433      0.153251
O	      8.45175      4.10013      6.30188        -0.005019      0.093768      0.165364
O	      2.11418      4.12160      4.30403        -0.027732      0.026169     -0.043352
O	      4.32501      6.27586      4.24432        -0.073625      0.032372      0.069143
O	      4.14575      4.34399      6.30572         0.016371      0.117314     -0.058371
O	      6.28545      6.41582      6.27438        -0.057269     -0.045028     -0.097313
O	      6.27573      4.06312      8.46407         0.042922     -0.266367      0.032812
O	      8.55031      6.30974      8.47391         0.219819     -0.062666      0.013022
O	      2.25812      6.30173      6.30225         0.064936      0.009827     -0.002205
O	      4.28227      8.27953      6.42307         0.006402      0.050051      0.015837
O	      4.25472      6.34723      8.42523        -0.079880      0.002207     -0.064778
O	      6.28177      8.36954      8.33917        -0.030422      0.126471     -0.051608
O	      6.26779      6.28366     10.53208         0.027713     -0.001008      0.106226
O	      8.41987      8.41038     10.70511         0.003336      0.007254     -0.018124
