# total energy = -245.34377690 eV
 
CRYSTAL
PRIMVEC
-0.011513 6.393870 6.211110 
6.444938 -0.049926 6.250111 
4.269401 4.261408 -0.006461 
PRIMCOORD
36 1
Li	      6.45453     10.58948      8.32372         0.029863     -0.027627     -0.027033
Li	      8.63358     10.44852     10.39866         0.032801     -0.021479     -0.007824
Li	      6.56055      8.40607     10.36317         0.028772     -0.047246     -0.013003
Li	      6.26432      2.26378      8.28885        -0.014189     -0.010705      0.029855
Li	      6.51636      4.14740      6.32179         0.063358      0.004670     -0.004201
Li	      6.28031      4.35825     10.22162         0.010139     -0.008334      0.008864
Li	      8.43636      6.50655     10.25653         0.000546     -0.029378      0.018010
Li	      8.74974      8.32192      8.48467         0.068047     -0.025059     -0.023365
Li	      6.51566      6.25501      8.46281        -0.013409     -0.027084     -0.028402
Ti	      4.28478      8.38878      8.40799         0.112448     -0.195164      0.070930
Ti	      4.42502      4.34245      4.05476         0.019081      0.137684     -0.024722
Ti	      2.20928      4.21855      6.22857         0.095578      0.024839     -0.052445
V	      6.40573      6.39313     12.34239         0.059325      0.003248      0.068548
V	      8.51097      8.48020     12.35274         0.066076     -0.019317      0.022876
V	      8.44070      4.30692      8.34173         0.016738     -0.026164     -0.090442
V	      4.22247      6.40193      6.22387         0.000844      0.023474     -0.060982
Co	      6.38611      6.37450      4.13043         0.072558     -0.315964     -0.259654
Cu	      4.35237      2.09139      6.28739         0.025905     -0.031887     -0.084192
O	      2.33298      2.21321      2.01836         0.062474     -0.040473      0.005322
O	      4.22337      4.16670      2.12094         0.069728     -0.004228      0.206111
O	      4.29040      2.27244      4.08100         0.184922     -0.001758     -0.022597
O	      6.26526      4.34921      4.16192        -0.288522     -0.432234      0.019968
O	      6.60131      1.94800      6.29892        -0.051989      0.015638     -0.020401
O	      8.62238      4.12766      6.26752        -0.036233      0.057661     -0.103366
O	      2.21240      4.11562      4.20857         0.127653      0.781558      0.373689
O	      4.26411      6.24233      4.18528        -0.165928     -0.199335      0.011880
O	      4.13194      4.33856      6.15194        -0.186004     -0.081790     -0.068429
O	      6.21524      6.55625      6.17533        -0.033293      0.097376      0.246281
O	      6.53046      4.19983      8.30163        -0.078448      0.002769     -0.011559
O	      8.57447      6.23959      8.33406        -0.017038      0.102692     -0.157662
O	      2.17865      6.29564      6.19334        -0.054739     -0.069739      0.004911
O	      4.27572      8.55345      6.28714         0.031558      0.037812      0.079544
O	      4.22548      6.51696      8.23548        -0.049134      0.277489      0.122072
O	      6.23930      8.54063      8.13989        -0.133005     -0.014449     -0.050255
O	      6.40745      6.35445     10.46987        -0.013869      0.019656     -0.080514
O	      8.57669      8.47213     10.44970        -0.042615      0.042853     -0.097812
