# total energy = -242.90935742 eV
 
CRYSTAL
PRIMVEC
0.007697 6.386134 6.283028 
6.319634 0.023555 6.266853 
4.216328 4.250066 0.012772 
PRIMCOORD
36 1
Li	      8.40645      8.50280     12.48228        -0.025375     -0.027843     -0.049448
Li	      4.21594      6.40804      2.30245        -0.052901      0.021838      0.038065
Li	      6.09277      6.44584      4.28347         0.039040      0.046022      0.056659
Li	      4.15727      4.50658      4.28410        -0.031851     -0.008358      0.012128
Li	      6.28738      4.24122      6.22681        -0.020631     -0.009368     -0.022932
Li	      4.28405      8.28136      4.28740         0.016835      0.053469      0.074195
Li	      2.33835      6.32813      4.27939        -0.083987     -0.029349      0.021761
Li	      2.13193      4.28150      6.05968        -0.029605      0.033196     -0.088778
Li	      4.20753      6.36034      6.01904         0.005120     -0.011384      0.138013
Ti	      2.02292      0.12416      2.03826        -0.072405      0.110319     -0.295789
Ti	      4.24045      8.50394      8.29666        -0.012872      0.177058     -0.402438
Ti	      6.33287      6.36592      8.31683         0.130250     -0.078372     -0.082644
V	      8.41881      4.23152      4.22671         0.097826     -0.064744      0.063363
V	      2.10594      4.19501      2.22129         0.033352      0.019443      0.011702
V	      4.23003      2.18352      6.23985        -0.022467     -0.112041      0.019236
V	      4.26452      4.25152      8.35587        -0.027852     -0.043638      0.041194
Co	      6.37640      6.42178     12.49807        -0.192327      0.066768      0.192610
Ni	      6.33695      2.16153      4.23920         0.101084     -0.041518      0.084881
O	      2.17484      2.09934      2.08357         0.017779     -0.132156      0.004550
O	      4.26814      4.16453      2.15142         0.041084     -0.059748      0.082749
O	      4.25491      2.01642      4.11782        -0.116186     -0.016009     -0.027888
O	      6.42339      4.22544      4.04788        -0.068862      0.120023     -0.058588
O	      6.22836      2.10140      6.25269         0.122842     -0.429707     -0.085577
O	      8.44221      4.35360      6.32452         0.278336      0.007645     -0.050549
O	      2.12059      4.25033      4.07460         0.019728     -0.018274     -0.008729
O	      4.21334      6.39353      4.18120         0.012578     -0.021861      0.039337
O	      4.22813      4.15506      6.40264         0.037512      0.026044     -0.081492
O	      6.38287      6.41904      6.42313        -0.025567     -0.006375      0.208821
O	      6.29877      4.40033      8.36605         0.037978      0.056578     -0.037569
O	      8.32463      6.36539      8.35615        -0.079086      0.029295     -0.025326
O	      2.11037      6.38454      6.45551        -0.191165      0.052272      0.272517
O	      4.23646      8.56515      6.45104         0.093869      0.298568      0.210256
O	      4.20606      6.40211      8.37170        -0.020673      0.056098     -0.051933
O	      6.35334      8.53979      8.41108        -0.028692     -0.002058     -0.090390
O	      6.23532      6.46447     10.34531        -0.085625     -0.070887     -0.103997
O	      8.40576      8.63180     10.38083         0.102912      0.009052     -0.007971
