# total energy = -247.95741380 eV
 
CRYSTAL
PRIMVEC
-0.027090 6.309505 6.226664 
6.367895 -0.009375 6.208415 
4.240740 4.189861 -0.001722 
PRIMCOORD
36 1
Li	      4.23083      0.11778      4.18714        -0.055802      0.009336      0.049040
Li	      6.22322      2.10448      4.18078        -0.061877      0.038836      0.043520
Li	      4.20557      6.27741      2.20301         0.020726     -0.005858     -0.013258
Li	      6.33560      6.36021      4.24227        -0.001878     -0.014901     -0.010034
Li	      4.13623      4.23107      4.25843         0.011845     -0.001921     -0.034425
Li	      4.18117      2.18560      6.05794        -0.049188      0.016038     -0.016695
Li	      2.24358      6.19839      4.14908         0.031881      0.004921      0.023040
Li	      2.26666      4.14599      6.06298         0.037278     -0.017298      0.022423
Li	      4.25340      6.19050      6.07564         0.027329     -0.016374      0.017017
Ti	      8.41933      8.36519     12.30141        -0.142189     -0.011854     -0.104816
Ti	      6.37137      4.16916      2.20745        -0.056677      0.104035      0.371671
Ti	      6.35321      6.32026      8.24315         0.097853     -0.056084     -0.272703
V	      6.33840      6.31989     12.35559        -0.009087      0.051117      0.010136
V	      4.26454      2.06264      2.17944        -0.091877      0.045652      0.005674
V	      4.31572      8.30122      4.17635         0.076407     -0.037937      0.050552
V	      8.44343      8.36277      8.24666         0.030269     -0.041823      0.002681
Co	      2.15769      4.26771      2.13718        -0.004390     -0.025690     -0.017841
Co	      6.30997      4.21891      6.12036        -0.023393     -0.024713     -0.041266
O	      2.23261      2.01694      1.96477        -0.106048     -0.114312     -0.019738
O	      4.32749      4.16917      1.96482         0.078881      0.040964      0.080462
O	      4.23270      2.09670      4.05726        -0.006282      0.034917      0.007682
O	      6.35870      4.18272      4.03734         0.019754     -0.022467     -0.331732
O	      6.50263      2.03378      6.17057         0.093879      0.065104      0.031857
O	      8.49262      4.05406      6.26574         0.044104      0.011317     -0.064390
O	      2.02936      4.21526      4.13121         0.039296     -0.000786     -0.068239
O	      4.22363      6.40238      4.15002         0.042906     -0.074907     -0.033955
O	      4.27559      4.18180      6.31865        -0.039427      0.010731      0.006006
O	      6.32985      6.28562      6.36826         0.022150      0.018796      0.313838
O	      6.31527      4.26768      8.30107         0.022883      0.008800     -0.050439
O	      8.34809      6.35385      8.31863        -0.046589     -0.042647      0.012850
O	      2.05754      6.41709      6.30732         0.024832      0.036752      0.018381
O	      4.11382      8.47376      6.27241         0.004827     -0.047614      0.013820
O	      4.19816      6.24180      8.33179        -0.030183     -0.005701     -0.023450
O	      6.30551      8.40014      8.27953         0.065962      0.023539      0.030961
O	      6.30955      6.23056     10.34615        -0.046892      0.052592     -0.121141
O	      8.54438      8.39214     10.39407        -0.021283     -0.010558      0.112512
