# total energy = -249.54012835 eV
 
CRYSTAL
PRIMVEC
0.006203 6.345993 6.235320 
6.310771 -0.023677 6.265202 
4.195728 4.239224 -0.004264 
PRIMCOORD
36 1
Li	      8.36230      2.14518      6.23115        -0.008423      0.030261     -0.030320
Li	      6.25439      4.22732      2.20608         0.064719     -0.008300     -0.040524
Li	      6.32778      2.19700      4.12737         0.013299     -0.002787     -0.063336
Li	      2.08617      4.19096      2.06340        -0.077083     -0.004667      0.043907
Li	      6.32427      6.25219      4.14975        -0.003588      0.017108      0.004260
Li	      4.38358      4.17433      4.13684         0.060949     -0.014214      0.063562
Li	      6.30871      4.18731      6.19305        -0.020789     -0.033659      0.019822
Li	      8.43476      8.43669      8.36331         0.022224     -0.032142     -0.021843
Li	      6.28643      6.34740      8.34964         0.007297      0.055962      0.014396
Ti	      0.14278      2.09209      2.05195         0.135086      0.187483     -0.016733
Ti	      8.42120      6.23252      6.29273        -0.053169     -0.055637      0.101370
Ti	      2.15828      4.27312      6.28677         0.203105      0.081716      0.067299
V	      8.38568      6.34062     10.33092         0.059640      0.126298     -0.019405
V	      8.29731      4.20833      4.13507        -0.088209      0.143129     -0.210330
V	      6.30007      4.23768     10.41712        -0.062341     -0.173077     -0.012508
V	      4.28393      6.27991      6.29949        -0.016775     -0.033803      0.069426
Cr	      4.14957      2.19794      2.11056        -0.032491     -0.238814      0.153368
Cu	      6.29903      0.08903      6.32228         0.015087      0.183238      0.021455
O	      2.05255      2.12040      2.03552        -0.148902     -0.015780      0.010497
O	      4.17276      4.28541      2.15932         0.005835     -0.132810     -0.038007
O	      4.22012      2.02345      4.17300         0.029405      0.077631      0.153775
O	      6.39767      4.20890      4.17067         0.112499      0.014847      0.027617
O	      6.19794      2.19642      6.35939        -0.029301      0.031253      0.029432
O	      8.30568      4.36959      6.21484        -0.010370     -0.011799      0.048064
O	      1.99511      4.26035      4.29422         0.035764     -0.147777      0.053901
O	      4.22211      6.40739      4.17432         0.079568     -0.038449     -0.046825
O	      4.10081      4.14984      6.26828        -0.132649      0.059716     -0.023769
O	      6.34862      6.44322      6.25491         0.006915      0.020023     -0.026078
O	      6.30352      3.98949      8.40246         0.003879     -0.133046     -0.090920
O	      8.44774      6.30399      8.22127         0.066562     -0.066126     -0.318337
O	      2.27135      6.22569      6.17002        -0.002097     -0.078691      0.166174
O	      4.28104      8.35213      6.30076        -0.014727      0.013352      0.006614
O	      4.20559      6.48529      8.26385         0.028599     -0.113034     -0.120304
O	      6.16094      8.50422      8.19563        -0.028344      0.046159     -0.112265
O	      6.26841      6.23767     10.36380        -0.214521      0.071389      0.121328
O	      8.46045      8.49262     10.40004        -0.006652      0.175049      0.015237
