# total energy = -252.54778035 eV
 
CRYSTAL
PRIMVEC
-0.005450 6.313817 6.375239 
6.345499 -0.002854 6.372890 
4.230799 4.207882 -0.002336 
PRIMCOORD
36 1
Li	      6.27695      4.27256      2.26944        -0.082842      0.035338      0.047885
Li	      4.18447      2.14488      2.26622        -0.022819      0.026416      0.046241
Li	      0.05094      2.10238      2.17449        -0.004311     -0.004538      0.011908
Li	      2.10129      4.17052      2.21885        -0.008447      0.002493      0.101585
Li	      2.15130      2.08996      4.14720         0.023822     -0.006921     -0.002873
Li	      4.25791      4.15256      4.20960        -0.016835      0.006896      0.031246
Li	      4.23288      2.14146      6.29533        -0.007390      0.011825     -0.085797
Li	      6.33065      4.18919      6.29125        -0.015185      0.017633     -0.068579
Li	      0.07472      4.12162      4.19167         0.005098     -0.008528     -0.057301
Ti	      4.17089      4.17518      0.20216        -0.106071      0.119528      0.675984
Ti	      2.14937      2.14760      0.16112        -0.119889      0.094096      0.395177
Ti	      6.41053      6.22233      8.45739         0.189974     -0.278579     -0.177874
V	      6.32048      2.11961      4.23672        -0.010944      0.036968     -0.032037
V	      2.13025      6.27993      4.21330         0.062204      0.006169     -0.093930
V	      4.15375      0.05821      4.20744        -0.074135      0.042735      0.043859
V	      4.22157      6.29675      6.34691         0.054356     -0.011976     -0.062082
Cr	      2.11189      4.20660      6.35136         0.037248     -0.046330      0.005418
Fe	      4.28327      4.19366      8.47171         0.008374     -0.050001      0.008318
O	      2.10342      2.11647      1.98083         0.021435     -0.002958     -0.381671
O	      4.22340      4.20159      2.00234        -0.021275     -0.011533     -0.582474
O	      4.23593      2.02424      4.24399        -0.000289     -0.016679      0.005226
O	      6.41919      4.20083      4.23684         0.049929      0.019669      0.013867
O	      6.45456      1.97497      6.35182         0.051103     -0.074810      0.049386
O	      8.52886      4.14660      6.29800         0.148932     -0.131396      0.056024
O	      2.08296      4.32330      4.36261        -0.022868     -0.060570      0.058279
O	      4.10127      6.36071      4.36933        -0.004626     -0.018431      0.027510
O	      4.10774      4.32572      6.35259        -0.040130      0.005318     -0.068240
O	      6.30229      6.40721      6.48111         0.004651      0.032901      0.103818
O	      6.30313      4.33248      8.46152         0.173204      0.326694     -0.039964
O	      8.34325      6.26556      8.51070        -0.252025     -0.035171     -0.011075
O	      2.05266      6.30248      6.32904        -0.025829     -0.000532      0.082383
O	      4.24365      8.41750      6.37014        -0.013582      0.071415      0.035072
O	      4.34965      6.37414      8.43708         0.086084      0.027982     -0.022426
O	      6.42454      8.32606      8.42951        -0.093902     -0.071542     -0.107650
O	      6.32383      6.29034     10.55001         0.012834     -0.049871     -0.042285
O	      8.46471      8.41145     10.70614         0.014147     -0.003708      0.037074
