# total energy = -103.44779918 eV
 
CRYSTAL
PRIMVEC
2.044806 4.182840 2.095866 
4.128702 -2.102838 -2.111599 
0.000094 4.191182 -4.208658 
PRIMCOORD
16 1
Li	      0.08108      4.14606     -4.24087         0.009323     -0.009280      0.008779
Li	      2.04109      2.05809     -0.00797        -0.004492      0.004747      0.015007
Li	      2.12828      6.23610     -0.06092         0.003308      0.008578     -0.002589
Li	      1.99178      2.16245     -4.16220        -0.018014     -0.001399     -0.003514
Ti	      4.13481      2.06450     -2.17568         0.006994     -0.057584     -0.059804
Ti	      4.16026      4.27864     -4.20121         0.164914      0.064024     -0.044328
Ni	      4.03483      4.17341      0.03044        -0.034384     -0.024208     -0.018541
Ni	      2.02717      4.17818     -2.13503        -0.010646     -0.026792     -0.038222
O	      2.17378      2.06804     -2.12194         0.133216      0.014251     -0.003388
O	      4.09045      4.09402     -2.15412         0.124525     -0.063809     -0.137749
O	      2.16014      4.17207     -4.21802         0.094807      0.019100      0.018133
O	      4.14439      2.02763     -0.09059        -0.006994     -0.208300     -0.063919
O	      4.07805      0.08732     -1.99353         0.114177      0.126544      0.081588
O	      1.97552      4.18004     -0.03883        -0.223882     -0.008106      0.084261
O	      4.12747      2.17455     -4.11052        -0.136382      0.046569      0.164685
O	      1.92043      6.25171     -2.09483        -0.216468      0.115663     -0.000398
