# total energy = -255.18717675 eV
 
CRYSTAL
PRIMVEC
0.065556 6.333573 6.271689 
6.425175 0.042682 6.294353 
4.301850 4.256104 0.010039 
PRIMCOORD
36 1
Li	      6.43347      0.11552      6.25238        -0.012739     -0.010928     -0.000701
Li	      6.34030      4.23980      2.07106        -0.041040      0.035610     -0.057769
Li	      4.43043      6.37611     10.50176         0.020892     -0.017056      0.030530
Li	      6.33592      2.07337      4.24919        -0.077468     -0.039345      0.060797
Li	      4.19851      6.21660      2.14667        -0.065909     -0.029424     -0.029862
Li	      8.69068      4.45773      8.35522         0.037566      0.029095     -0.034706
Li	      4.32983      4.28938      4.14952         0.019313      0.026823      0.039114
Li	      4.37285      2.10421      6.27862         0.011455      0.011010     -0.004587
Li	      8.60509      6.40372     10.47027        -0.025358      0.029568     -0.006707
Ti	      4.23977      2.27679      2.20900        -0.056793      0.293311      0.087875
Ti	      2.21528      2.11219      4.06743         0.104510     -0.085172     -0.144288
Ti	      6.58133      4.13497      6.27551         0.249461     -0.348788     -0.032665
V	      8.49959      2.13162      6.26907         0.026722     -0.018657      0.073182
V	      4.35343      6.33067      6.29832        -0.071363     -0.071837     -0.026026
V	      8.59187      8.51941      8.44380         0.074283      0.015842      0.072149
V	      6.51879      6.40603      8.43344         0.028888     -0.100380      0.052476
Cr	      6.49195      4.27627     10.44819        -0.099198      0.015047     -0.167191
Cr	      2.20143      4.28577      6.25191         0.088692      0.084994     -0.026252
O	      2.24381      2.04210      2.11182         0.066545     -0.011033      0.195414
O	      4.26425      4.11511      2.08884         0.044854     -0.270134      0.088086
O	      4.23997      2.13377      4.15439        -0.131567      0.029930     -0.176620
O	      6.40936      4.40705      4.37813         0.037872      0.102660      0.104468
O	      6.41479      2.24951      6.27778         0.012718      0.382287      0.030740
O	      8.44484      4.25663      6.33380        -0.402785      0.012142     -0.017320
O	      2.12368      4.12356      4.24102        -0.018399     -0.073447      0.067255
O	      4.47741      6.45071      4.17520         0.084928      0.039890     -0.054128
O	      4.26856      4.23802      6.37721        -0.099355     -0.004528     -0.056519
O	      6.49128      6.42192      6.29637         0.016968     -0.007278     -0.000935
O	      6.40308      4.31113      8.35576         0.021376     -0.013531     -0.046608
O	      8.50406      6.51357      8.40189        -0.006371     -0.018939      0.002836
O	      2.25649      6.27570      6.25439        -0.068392     -0.208007     -0.019244
O	      4.43083      8.45289      6.22722         0.077779      0.125731      0.013520
O	      4.43336      6.38188      8.40803         0.047439      0.062102      0.074116
O	      6.42813      8.49572      8.32131         0.022879      0.044883     -0.070777
O	      6.48966      6.27999     10.39005         0.018693     -0.005093      0.021075
O	      8.77879      8.51706     10.43516         0.062906     -0.007350     -0.040729
