# total energy = -242.26656654 eV
 
CRYSTAL
PRIMVEC
0.020251 6.268193 6.357091 
6.321772 0.005283 6.372263 
4.214198 4.188865 0.003730 
PRIMCOORD
36 1
Li	      8.41754      8.34356     12.65083         0.010566     -0.013184     -0.057652
Li	      4.25994      2.06300      2.32302         0.033779      0.022971     -0.023461
Li	      4.24077      0.16730      4.25269         0.047402     -0.109103     -0.033369
Li	      6.12106      2.07396      4.30283         0.053326     -0.074451     -0.022913
Li	      4.26344      4.01731      4.32128        -0.072966      0.032289     -0.045085
Li	      4.19660      2.10605      6.15015        -0.005581     -0.012394      0.116964
Li	      2.11928      6.29717      4.29580         0.013371      0.002048      0.017795
Li	      4.28495      6.27838      6.30143        -0.024444      0.032269     -0.018287
Li	      6.29054      6.30924      8.46790        -0.022137      0.025744     -0.016094
Ti	      2.19916      0.03090      2.18827         0.121005      0.002736      0.134341
Ti	      8.45262      4.23747      8.44480         0.040573      0.039746     -0.111834
Ti	      8.44221      8.36646      8.50526        -0.080539     -0.001515      0.135590
V	      6.33483      6.27924     12.66300        -0.018567     -0.077925      0.010094
V	      6.32042      2.09232      8.47818         0.014829     -0.040937      0.102269
V	     10.51032      8.40677     10.63829         0.057468      0.024064      0.041929
V	      6.36394      8.31414      6.36915        -0.037513      0.030508     -0.012736
Cu	      6.31919      4.22322      6.13300         0.036485     -0.046050     -0.007731
Ni	      2.19901      2.08654      4.30572        -0.093533      0.005958      0.006745
O	      2.06036      2.09586      2.13221         0.021339     -0.026809     -0.089942
O	      4.16663      4.18674      2.06670        -0.029467      0.023837      0.003978
O	      4.18273      2.07686      4.23901         0.059274      0.008730      0.014823
O	      6.26077      4.19390      4.03455         0.001905     -0.083962     -0.181254
O	      6.34815      1.99976      6.50364        -0.026447      0.168963     -0.064091
O	      8.44084      4.14870      6.57961        -0.130902      0.038320      0.235892
O	      2.05981      4.18578      4.17455         0.022175      0.152707     -0.138634
O	      4.27305      6.38548      4.11162        -0.066872     -0.010826      0.027838
O	      4.16894      4.16958      6.53632         0.114105      0.013732      0.062381
O	      6.30161      6.38163      6.37533         0.018753     -0.139036     -0.013820
O	      6.35407      4.20071      8.55485        -0.013672      0.040780      0.000947
O	      8.50330      6.25296      8.52593        -0.048635     -0.027081      0.000962
O	      2.08601      6.21558      6.49801         0.057946     -0.030958      0.087551
O	      4.32371      8.43655      6.34236         0.047036     -0.021311     -0.018444
O	      4.11967      6.16220      8.47906        -0.160181     -0.087801      0.018391
O	      6.46548      8.44562      8.47632         0.111308      0.077030     -0.015088
O	      6.33995      6.20750     10.70458        -0.006580      0.050977     -0.005145
O	      8.52307      8.34279     10.45109        -0.044607      0.009933     -0.142908
