# total energy = -241.34967183 eV
 
CRYSTAL
PRIMVEC
0.005702 6.192490 6.347778 
6.285280 0.011680 6.342636 
4.204785 4.139391 -0.006848 
PRIMCOORD
36 1
Li	      8.19442      2.13715      6.39151        -0.012102     -0.009392     -0.034017
Li	      6.27857      2.09140      4.37481         0.020961      0.016019      0.000410
Li	      6.27551      2.08446      8.23277        -0.051548      0.016272      0.011438
Li	      6.34018      6.17288      4.48595         0.005235     -0.040578     -0.002345
Li	      8.30184      6.18254      6.36395         0.013534     -0.015969      0.018417
Li	      6.32343      4.24946      6.38275         0.007198     -0.025909      0.027216
Li	      6.31614      8.04444      6.42654         0.043675      0.072607     -0.062480
Li	      4.44224      6.18713      6.37264        -0.047298     -0.046553     -0.059303
Li	      6.29177      6.22899      8.23115         0.062419     -0.065873      0.087659
Ti	      4.31843      3.98901      4.37394         0.161036      0.038519      0.292860
Ti	      4.25331      8.18440      4.30659        -0.177955     -0.120799      0.186754
Ti	      2.03239      6.23139      4.34277         0.003586      0.094197      0.172202
V	      4.20360      0.10324      4.28187         0.026716     -0.144082      0.042406
V	      2.05331      0.06940      2.04324        -0.050220      0.061746     -0.032464
V	      2.09486      4.05925      2.04945        -0.036754      0.137102     -0.029161
V	      4.21443      4.07427      8.34935         0.167162     -0.039873      0.028763
Cu	      6.24163      0.12352      6.36305         0.086627     -0.068088     -0.069382
Cu	      4.30162      8.16741      8.24837         0.016727     -0.020809     -0.110554
O	      2.08888      2.08713      2.07159         0.192492      0.031008     -0.038172
O	      4.12250      4.24114      2.37854        -0.009534     -0.077812      0.158521
O	      4.20721      2.10797      4.27173        -0.000257      0.264080     -0.056853
O	      6.23738      4.17104      4.11288        -0.235252     -0.044721      0.066744
O	      6.26258      2.02370      6.30859        -0.067162      0.160101      0.041132
O	      8.44818      4.12501      6.26066        -0.122494     -0.005551      0.048030
O	      2.07431      4.21533      4.17721         0.044030     -0.110905      0.017350
O	      4.03309      6.23932      4.31397         0.090232     -0.043957      0.022857
O	      4.21105      4.13990      6.23147        -0.015498     -0.020220     -0.239164
O	      6.30511      6.18204      6.34956         0.040763      0.017703      0.078283
O	      6.30302      4.09493      8.56565         0.019765     -0.036244      0.025394
O	      8.37100      6.19835      8.62008         0.040171      0.050667     -0.031970
O	      2.03556      6.24842      6.26983         0.031400      0.029635     -0.152315
O	      4.22524      8.38511      6.13156         0.021116     -0.089185     -0.118462
O	      4.13371      6.08733      8.60645        -0.000312      0.121451     -0.093666
O	      6.43285      8.43093      8.38737        -0.268440     -0.118125     -0.022157
O	      6.34921      6.11433     10.43983         0.003913      0.040547     -0.162823
O	      8.49148      8.25709     10.49439        -0.003934     -0.007009     -0.011147
