# total energy = -249.95001678 eV
 
CRYSTAL
PRIMVEC
-0.019878 6.378755 6.209162 
6.351488 -0.030379 6.219540 
4.215838 4.241009 -0.001705 
PRIMCOORD
36 1
Li	      6.36115     10.53412      8.34582         0.037192     -0.069602     -0.023843
Li	      4.27813      2.09735      2.14010         0.036552      0.004779     -0.021831
Li	      6.42230      6.27666      4.19348         0.011552     -0.034593     -0.044459
Li	      4.29333      4.14597      4.17397         0.004367      0.038318     -0.000174
Li	      8.25082      6.44506      6.12437        -0.056553      0.030603     -0.033586
Li	      6.29524      4.33601      6.14837        -0.011680      0.034301     -0.022759
Li	      6.36776      4.28935     10.35343        -0.015278      0.015309      0.021912
Li	      8.37138      6.31595     10.37995        -0.024406      0.028483      0.016598
Li	      6.28496      6.39762      8.22555         0.013005      0.045464     -0.016559
Ti	      2.09263      8.47001      6.20786         0.068699     -0.111393     -0.086824
Ti	      4.17164      6.38027      2.21597        -0.012239      0.032456      0.399783
Ti	      2.06590      4.31809      2.20008        -0.015347      0.026080      0.397326
V	      4.21267      0.01747      4.10344         0.057938      0.070866      0.065944
V	      6.26010      2.13058      4.14024         0.176031     -0.004691     -0.012664
V	      4.29967      6.31938      6.16164         0.049647     -0.085860      0.073848
V	      8.49112      8.39821      8.26709         0.031755      0.012245     -0.054379
Fe	      6.31263      8.45186      6.19878        -0.007387      0.060074     -0.099334
Co	      4.23463     10.57720      6.21601         0.010967      0.006400     -0.003204
O	      2.02097      2.24207      1.98855        -0.046940      0.099976     -0.100183
O	      4.08149      4.33797      2.04806        -0.131907      0.133513     -0.018780
O	      4.29981      2.07861      4.12881        -0.150508     -0.062199     -0.002380
O	      6.44094      4.13315      4.12699        -0.010161     -0.001605     -0.010780
O	      6.48249      2.07398      6.28615         0.088018     -0.037761      0.094553
O	      8.46599      4.08943      6.22723         0.038888     -0.177526      0.058962
O	      2.05867      4.29492      4.05150        -0.017987      0.030144     -0.476895
O	      4.21412      6.36525      4.05689        -0.035198      0.033232     -0.440159
O	      4.22119      4.33925      6.20993         0.078814      0.035473     -0.010992
O	      6.23214      6.36993      6.16601        -0.019023     -0.080851     -0.007400
O	      6.40389      4.15440      8.28688         0.145718     -0.072865      0.011211
O	      8.49613      6.27876      8.24522         0.054212     -0.208058     -0.005206
O	      2.16424      6.50276      6.20953        -0.062718      0.223084      0.049833
O	      4.07962      8.42862      6.22028        -0.198949      0.042072      0.014689
O	      4.26034      6.22491      8.32305         0.022155      0.017713     -0.121007
O	      6.43252      8.46881      8.26340        -0.104775      0.010982      0.170018
O	      6.24922      6.45948     10.40892         0.003708     -0.023901      0.049527
O	      8.37236      8.49838     10.41861        -0.008162     -0.060662      0.189193
