# total energy = -246.24208791 eV
 
CRYSTAL
PRIMVEC
-0.054776 6.364392 6.347551 
6.334512 -0.045999 6.338639 
4.213891 4.227849 -0.021475 
PRIMCOORD
36 1
Li	      2.10586      2.10506      0.13219         0.026862      0.017640     -0.013440
Li	      4.21978      6.37435      2.15729        -0.024041      0.020718     -0.071783
Li	      2.08995      4.25643      2.20438        -0.002885      0.017526     -0.068792
Li	      4.07354      4.46872      4.15711        -0.013989      0.041958     -0.052185
Li	      8.30590      6.31428      6.35632         0.061776      0.007916      0.035470
Li	      6.30492      4.40209      6.36491        -0.038205     -0.037213      0.042897
Li	      2.17036      6.27233      4.19507        -0.055631      0.083685     -0.054330
Li	      4.24907      6.30211      6.18744        -0.057482      0.028039      0.047237
Li	      6.34924      6.25846      8.26692         0.016292     -0.030659      0.075823
Ti	      8.39231      4.22694      4.30014        -0.046245      0.136245      0.041709
Ti	      6.35025      2.04625      4.37275        -0.072829      0.039791      0.271955
Ti	      4.26098      4.04400      8.33413         0.264918     -0.235318     -0.086312
V	      4.26073      4.22803      0.03641        -0.077460     -0.014961      0.060967
V	      4.15779      8.38251      4.18801         0.101137      0.162035      0.013818
V	      2.10429      0.02108      2.11650        -0.100972     -0.016167     -0.070592
V	      4.16788      8.39477      8.45298         0.152745      0.028316     -0.064663
Fe	      2.11883      4.10494      6.17720        -0.056379      0.249553      0.247669
Cu	      6.18958      6.40137      4.22243        -0.040367     -0.049585     -0.046217
O	      2.16209      1.98909      2.11053        -0.258097     -0.038069      0.216710
O	      4.26345      4.14233      2.03252         0.063180      0.200529      0.039341
O	      4.39658      1.96031      4.18846         0.212753     -0.072411      0.122118
O	      6.41530      4.02040      4.21864         0.119232     -0.134709     -0.007133
O	      6.39476      2.04129      6.21107        -0.017541     -0.027601     -0.285644
O	      8.52887      4.18246      6.17936        -0.044989     -0.016654     -0.169057
O	      2.01145      4.35193      4.23891        -0.105638      0.015801     -0.150594
O	      4.07897      6.49107      4.19509         0.038760     -0.306776      0.062221
O	      4.12286      4.26696      6.46527         0.027296     -0.052105      0.069403
O	      6.30341      6.42365      6.32411        -0.001757     -0.180189     -0.163288
O	      6.16018      4.25594      8.52509        -0.196678     -0.054935     -0.335221
O	      8.39951      6.47044      8.39897        -0.019592      0.279183      0.013757
O	      1.97629      6.25904      6.41133         0.005556     -0.035938      0.020577
O	      4.23534      8.50037      6.28197         0.023662      0.014519      0.141770
O	      4.11975      6.29130      8.60629        -0.089857     -0.237048      0.053623
O	      6.33537      8.48734      8.50720         0.207273      0.069713     -0.001488
O	      6.20640      6.33538     10.65576        -0.110034      0.080355     -0.028720
O	      8.33028      8.51029     10.44887         0.109227      0.046818      0.092393
