# total energy = -247.84840786 eV
 
CRYSTAL
PRIMVEC
0.017021 6.358928 6.315271 
6.294371 0.030130 6.302165 
4.212647 4.246800 0.003732 
PRIMCOORD
36 1
Li	      2.18386      8.43804      6.34009        -0.003920     -0.068265     -0.022659
Li	      2.15141      0.08709      2.08955         0.013446      0.015134     -0.014080
Li	      4.07794      2.06390      2.12300        -0.135358     -0.110202      0.037826
Li	      4.15741      0.06377      4.19025        -0.028141      0.045887     -0.041859
Li	      2.13884      4.21262      2.13602         0.004775     -0.020360      0.059502
Li	      2.12895      2.12252      4.19382         0.006087      0.025147      0.039391
Li	      4.24984      8.43614      4.25783         0.044568     -0.101388      0.012933
Li	      2.14261      6.35434      4.23241         0.011802     -0.011369      0.012263
Li	      4.17621      6.43305      6.30312         0.011547      0.001424     -0.023641
Ti	      4.20227     10.49640      6.27522        -0.008400     -0.220659     -0.107928
Ti	      0.13612      2.10494      2.16995         0.215893     -0.002722      0.204313
Ti	      4.21404      4.36487      8.49567        -0.036582      0.155390      0.233504
V	      6.29705      2.17170      4.21166        -0.007354     -0.044425     -0.066406
V	      2.08241      4.24776      6.27451         0.009777     -0.053634      0.014921
V	      4.17610      4.25855      4.16750        -0.033112     -0.007671     -0.009347
V	      6.32895      6.31959      8.44992         0.058250      0.021961      0.036991
Fe	      6.42903      4.29113      6.27222        -0.044534      0.057831     -0.027429
Ni	      8.40711      6.37627      6.30421        -0.015890      0.003014     -0.058756
O	      1.95692      2.15215      2.09725        -0.260582     -0.035567     -0.026562
O	      4.17096      4.37656      2.03546        -0.013396      0.119773     -0.077960
O	      4.28532      2.22555      4.21027        -0.011837      0.013555     -0.139987
O	      6.21858      4.16889      4.17774         0.031974      0.040350     -0.087031
O	      6.28861      2.05917      6.33743         0.149545     -0.026427      0.063890
O	      8.47962      4.29741      6.29956         0.200728     -0.063649      0.018670
O	      2.20296      4.24548      4.30979        -0.042173     -0.014162     -0.072055
O	      4.21733      6.28177      4.08604         0.018924      0.054439     -0.183246
O	      4.23016      4.23964      6.32950        -0.025882      0.133506      0.075283
O	      6.34196      6.46130      6.33200        -0.061936      0.023538     -0.039813
O	      6.22866      4.17965      8.44534        -0.019838     -0.094425      0.045818
O	      8.47661      6.51612      8.37184         0.099926      0.056025      0.129083
O	      1.95755      6.26700      6.32131        -0.143422      0.047807      0.059928
O	      4.20959      8.60397      6.31416        -0.054230      0.195280      0.017804
O	      4.21294      6.25777      8.39361        -0.066137     -0.187414     -0.021288
O	      6.42031      8.45868      8.39549         0.106889      0.049279     -0.001788
O	      6.29756      6.47734     10.61195        -0.025352     -0.014120      0.170083
O	      8.33779      8.51480     10.39797         0.053940      0.017123     -0.210365
