# total energy = -250.44693254 eV
 
CRYSTAL
PRIMVEC
0.021293 6.194175 6.401054 
6.368600 0.021240 6.401253 
4.262404 4.146317 -0.002579 
PRIMCOORD
36 1
Li	      2.14978      2.03321      0.07606        -0.000808     -0.000681      0.058331
Li	      2.12601      0.16175      2.17576         0.028695     -0.003477      0.026767
Li	      4.14821      2.06908      2.16649        -0.034890      0.024889     -0.006236
Li	      6.36909      2.14679      4.29361         0.037619      0.037735     -0.009732
Li	      4.39907      6.15181      2.22845         0.068526      0.009184      0.058641
Li	      2.10716      1.99680      4.12254        -0.004818     -0.019885     -0.048811
Li	      4.24843      2.06328      6.30872         0.003655      0.020988     -0.061688
Li	      2.21843      6.25397      4.28015         0.012191      0.007332      0.015670
Li	      4.22039      6.23893      6.35464        -0.011982     -0.018058     -0.012078
Ti	      6.37430      0.14805      6.46823        -0.045577      0.419554      0.089741
Ti	      2.11817      4.14568      6.25559        -0.050020     -0.012387     -0.115271
Ti	      6.38283      6.30423      8.55058        -0.081340      0.195633     -0.127945
V	      4.20476      0.10805      4.25030        -0.107166      0.050936      0.034068
V	      2.16659      4.05049      2.16030         0.012620     -0.137247      0.032766
V	      6.33962      4.11949      6.37293         0.064402     -0.017190     -0.077673
V	      8.55619      8.24898      8.55894        -0.122423      0.009633     -0.016240
Fe	      4.33928      4.11864      4.24110         0.049695      0.028682     -0.012759
Fe	      4.25098      8.09511      4.31827        -0.012157      0.022244     -0.045248
O	      2.12630      2.16190      2.11435         0.012779      0.061503     -0.044405
O	      4.17181      4.17552      1.99234        -0.009128      0.003535     -0.199303
O	      4.28843      2.08167      4.26132         0.023688     -0.166429     -0.016881
O	      6.49568      4.16009      4.29240         0.107874     -0.004086     -0.056249
O	      6.37883      2.00454      6.38201         0.012735     -0.456325      0.019013
O	      8.58492      4.14705      6.41358         0.107015      0.025902     -0.031648
O	      2.14841      4.09536      4.34368        -0.009886      0.023713      0.305781
O	      4.24006      6.14112      4.28001        -0.000550     -0.054148      0.005891
O	      4.15732      4.15378      6.49741        -0.114592      0.000266      0.066162
O	      6.35377      6.29550      6.55920         0.030787      0.165007      0.155927
O	      6.39572      4.20915      8.50827         0.064392      0.079068      0.000551
O	      8.33925      6.16180      8.58148        -0.115761      0.125787      0.017463
O	      1.99547      6.10518      6.40175        -0.096339     -0.112225     -0.027523
O	      4.42237      8.36993      6.41761         0.164212      0.035464      0.077503
O	      4.40668      6.18966      8.56581         0.121091     -0.095471     -0.027475
O	      6.49886      8.21705      8.43624        -0.088555     -0.282778     -0.050387
O	      6.31075      6.17463     10.63928         0.027354      0.034942     -0.019760
O	      8.51273      8.36841     10.52390        -0.043339     -0.001613      0.043038
