# total energy = -243.81720632 eV
 
CRYSTAL
PRIMVEC
0.032332 6.307413 6.315992 
6.339676 0.017712 6.330295 
4.210242 4.198316 0.028094 
PRIMCOORD
36 1
Li	      8.42137      8.35294     12.60512        -0.015825      0.034662     -0.044320
Li	      6.40614      8.40157     10.60619        -0.012594     -0.000246      0.023926
Li	      0.04083      2.09324      2.10312         0.017525     -0.031916      0.002681
Li	      4.18221      4.28876      4.29285        -0.015777     -0.020753     -0.001983
Li	      6.33867      4.16329      6.31276         0.059542     -0.035797     -0.041659
Li	      4.24534      8.38195      4.26454         0.013826     -0.001982      0.039118
Li	      2.19235      6.25671      4.31287         0.016549     -0.034592     -0.042575
Li	      2.17470      4.28470      6.22242        -0.009206     -0.028496     -0.023280
Li	      4.10363      6.28094      6.25419        -0.073961      0.031870      0.029756
Ti	      4.32918      8.49350      8.37369        -0.047506      0.117393     -0.244530
Ti	      6.17428      6.36656      4.35064        -0.264582      0.117136      0.126223
Ti	      4.37511      4.13897      8.44289         0.199953     -0.103795     -0.064897
V	      6.43504      6.34656     12.58124        -0.008748      0.011754      0.000265
V	      2.13836      6.29581      8.40114        -0.042812      0.033581     -0.003288
V	      8.48197     10.47871     10.57229        -0.008162      0.031096      0.087787
V	      4.28205      2.17186      6.30803         0.029608     -0.025467     -0.058772
Ni	      8.40085      4.21146      8.46848        -0.003755      0.052267     -0.017455
Ni	      6.35649      6.31805      8.44332         0.020675     -0.018725     -0.039383
O	      2.24351      2.10233      2.22872         0.058569     -0.002105      0.024994
O	      4.20098      4.14198      2.10965         0.022974     -0.208058      0.025896
O	      4.19996      2.05276      4.17952        -0.020510     -0.045317     -0.074306
O	      6.42791      4.32691      4.22516        -0.018571      0.058533      0.086632
O	      6.26040      2.04448      6.34887         0.043587      0.084921     -0.001599
O	      8.50298      4.31063      6.36462         0.014595     -0.002806     -0.034117
O	      2.12459      4.07042      4.15762         0.007327     -0.159378      0.182774
O	      4.35518      6.27945      4.25942         0.259785      0.053223      0.025416
O	      4.22686      4.16278      6.47871         0.008741      0.060805      0.087915
O	      6.44225      6.32471      6.28402        -0.015480      0.010814     -0.183501
O	      6.26644      4.24425      8.41921        -0.312612     -0.117529      0.029036
O	      8.42751      6.38475      8.44567         0.109011      0.220102      0.047546
O	      2.04115      6.31490      6.31082         0.036062     -0.002509     -0.028992
O	      4.19607      8.47594      6.49638         0.042669     -0.081376      0.232720
O	      4.26814      6.31551      8.43453        -0.027043      0.015969     -0.076231
O	      6.32442      8.38531      8.45817        -0.081818      0.022749     -0.003526
O	      6.25180      6.29694     10.52664         0.001248     -0.015598      0.070521
O	      8.42346      8.48708     10.40119         0.016720     -0.020430     -0.138796
