# total energy = -254.70499942 eV
 
CRYSTAL
PRIMVEC
-0.017690 6.256033 6.350523 
6.324653 -0.010071 6.342766 
4.208949 4.158266 0.000895 
PRIMCOORD
36 1
Li	      6.38257     10.34294      8.54101        -0.005225      0.079104     -0.005081
Li	      4.20427      6.24363     10.43800         0.009081      0.009887      0.015812
Li	      6.32256      8.31417     10.39455         0.016564     -0.003493      0.008097
Li	      2.12032      4.21708      2.18234        -0.004269     -0.021312      0.026414
Li	      4.23794      4.15073      4.21342        -0.000382      0.011563      0.002054
Li	      8.36076      6.24699     10.52523        -0.010013     -0.021529     -0.026764
Li	      4.21716      6.17242      6.49418        -0.018044      0.032957      0.078175
Li	      4.11424      4.31142      8.51173         0.025658      0.043027      0.004067
Li	      6.24611      6.28517      8.53602        -0.009190     -0.040014      0.045377
Ti	      8.38732      8.33562     12.63650         0.126099     -0.060637     -0.146458
Ti	     10.40190      6.23947      8.47175        -0.301059     -0.053904      0.157729
Ti	      6.27521      4.13665      6.37396        -0.029596      0.036685     -0.023118
V	      4.23227      8.27545      8.49833        -0.072357     -0.029692      0.045591
V	      6.30300      4.19528     10.50469        -0.000851     -0.013956      0.010435
V	      6.33676      6.18201      4.22100        -0.068939      0.032274     -0.042683
V	      4.26632      2.08275      6.34147        -0.046749     -0.005912     -0.002113
V	      2.16113      4.20832      6.39460         0.012125      0.064297     -0.094334
Cr	      6.31712      6.24694     12.66597         0.027286     -0.147676     -0.037900
O	      2.09370      2.08533      2.03317        -0.088142     -0.014492     -0.043335
O	      4.19275      4.17447      2.02862         0.020829      0.081414     -0.068280
O	      4.10444      2.10601      4.21006        -0.104506      0.016095     -0.044329
O	      6.29752      4.20181      4.38190        -0.002963     -0.085685      0.153154
O	      6.37460      2.01035      6.31897         0.049081      0.062453      0.011798
O	      8.43996      4.10694      6.35749        -0.010935     -0.108772     -0.035831
O	      2.00427      4.07520      4.33679        -0.011600      0.042632      0.018560
O	      4.28008      6.28927      4.10753        -0.050888     -0.035236     -0.140807
O	      4.25505      4.18635      6.38576         0.165668      0.051114     -0.033126
O	      6.36140      6.25977      6.31049        -0.047464     -0.072713      0.098778
O	      6.35002      4.13843      8.43241         0.004757     -0.071670     -0.118391
O	      8.53987      6.23288      8.47117         0.423166      0.012143      0.005395
O	      2.01320      6.22198      6.33230        -0.056483      0.122559     -0.024686
O	      4.17657      8.37954      6.33710        -0.077074      0.105488      0.025129
O	      4.17328      6.37001      8.46994         0.053866     -0.101748      0.039162
O	      6.21835      8.33490      8.37818         0.149017     -0.007662     -0.091349
O	      6.31938      6.13794     10.67800        -0.031468      0.092247      0.000264
O	      8.48780      8.28846     10.71644        -0.034997      0.000165      0.232592
