# total energy = -97.85922410 eV
 
CRYSTAL
PRIMVEC
0.000115 2.137601 2.137703 
2.142042 -2.136245 -0.001273 
13.620404 11.441292 0.027337 
PRIMCOORD
16 1
Li	      2.49032      0.34316      1.79611         0.008965      0.015050     -0.014017
Li	      2.10603      2.10408      0.03505         0.007158      0.007668     -0.006624
Li	      9.18206      7.01465     -7.01073        -0.003752     -0.005804      0.005250
Li	     10.94043      8.77741     -6.63681        -0.012210     -0.015505      0.016251
Ti	      6.71003      4.56151     -2.42347        -0.002489     -0.002817      0.003536
Ti	     13.52694      9.20895     -9.21070         0.005249      0.005536     -0.005198
Ni	      4.24126      2.10149     -2.09802         0.095699      0.097154     -0.101223
Ni	      9.17899      4.88004     -4.88007        -0.098885     -0.087291      0.080625
O	     11.52845      9.34735     -9.34977         0.091283      0.092741     -0.090335
O	      8.88713      6.72968     -4.59260         0.129923      0.120080     -0.113268
O	     11.21404      6.90973     -6.90696         0.000502     -0.000359      0.000842
O	      6.61031      4.46575     -4.46531        -0.075246     -0.074394      0.074077
O	      4.53309      2.39035     -0.24944        -0.115825     -0.120259      0.121677
O	      4.66756      4.65637     -2.51822         0.073633      0.074374     -0.074863
O	     13.38469     11.20672     -9.07089        -0.096031     -0.098042      0.095608
O	      2.21742      0.07417     -0.07246        -0.007975     -0.008131      0.007662
