# total energy = -252.15806784 eV
 
CRYSTAL
PRIMVEC
0.020039 6.402211 6.279814 
6.306513 0.044979 6.254792 
4.227466 4.274812 0.006833 
PRIMCOORD
36 1
Li	      6.21687      4.20607      2.10184        -0.041330     -0.021420      0.054808
Li	      4.26569      2.27257      2.08767        -0.005897      0.001922     -0.017615
Li	      4.19303      6.22098      2.07937        -0.014298     -0.020330     -0.007018
Li	      2.25090      4.32553      2.09432        -0.049886     -0.000492     -0.009509
Li	      4.22822      4.26511      4.08132         0.040818      0.001122      0.000474
Li	      4.19317      2.31759      6.30240         0.033275      0.021398      0.002479
Li	      2.30944      4.31283      6.35847         0.040807      0.024318     -0.035053
Li	      4.17705      6.29874      6.39455         0.000564      0.036337      0.031941
Li	      4.17856      4.33213      8.21405         0.039835     -0.003854      0.073949
Ti	      2.18500      2.10895      0.20998         0.115951     -0.021519      0.247300
Ti	      6.25001      6.53231      4.21425        -0.033401     -0.052492      0.008562
Ti	      2.25460      6.31429      4.14130         0.086730     -0.074417     -0.176479
V	      4.18741      6.46475     10.37844        -0.040450     -0.034577      0.006464
V	      6.25910      2.19601      4.12396        -0.042270      0.059127      0.024397
V	      0.03506      4.21690      4.13254        -0.042552      0.034390     -0.034028
V	      6.20496      4.29147      6.31186         0.071572      0.027399      0.002862
V	      6.31263      6.49232      8.28426         0.025408     -0.054174     -0.070601
Fe	      4.20585      4.25657      0.19703         0.000470      0.039618     -0.188212
O	      2.09431      2.15136      2.10232         0.011969     -0.014859     -0.224931
O	      4.22979      4.26573      2.09281        -0.018729     -0.009578      0.191669
O	      4.20364      2.04526      4.19745         0.042291      0.010003     -0.016392
O	      6.34265      4.33092      4.21489        -0.004848      0.095713     -0.001613
O	      6.40060      2.20126      6.17007         0.022890      0.055277     -0.022754
O	      8.33308      4.15191      6.16346        -0.011144     -0.140196     -0.015418
O	      2.14416      4.28870      4.21135         0.038685      0.002465     -0.009748
O	      4.24021      6.39911      4.12812        -0.023114     -0.050888      0.041464
O	      4.30496      4.27630      6.26153        -0.081869      0.049087      0.015779
O	      6.30662      6.42640      6.15192         0.037248      0.050657     -0.106954
O	      6.38018      4.48060      8.28008        -0.019234      0.029863      0.042634
O	      8.37527      6.46907      8.50303         0.040553      0.015123      0.201475
O	      2.13589      6.53865      6.14156         0.060451      0.106158     -0.073461
O	      4.07156      8.52084      6.24962        -0.251414     -0.077459      0.064505
O	      4.33009      6.40678      8.44318        -0.001431      0.025785     -0.011005
O	      6.35162      8.49420      8.44942         0.006038      0.003279     -0.002859
O	      6.35508      6.45909     10.44120         0.043618     -0.061999     -0.000538
O	      8.39173      8.58795     10.50882        -0.077307     -0.050786      0.013428
