# total energy = -248.01550779 eV
 
CRYSTAL
PRIMVEC
0.003057 6.315038 6.348482 
6.427583 -0.040836 6.392164 
4.254018 4.208542 0.003650 
PRIMCOORD
36 1
Li	      8.38664      2.18700      6.36585        -0.027388      0.030931     -0.020200
Li	      6.42081      2.07993      4.42100         0.029449      0.004179      0.000679
Li	      6.30063      2.26676      8.39419        -0.052818     -0.001818      0.014114
Li	      8.32925      4.31091      8.35134         0.014877      0.026143     -0.046474
Li	      4.30174      4.22508      4.29564        -0.010314      0.012921      0.026068
Li	      8.66032      6.26728      6.55851         0.025019     -0.011885      0.045094
Li	      6.45152      4.02902      6.59226        -0.008317      0.002282     -0.009936
Li	      4.52030      4.03985      8.47147         0.009003     -0.011056      0.015263
Li	      6.57879      6.07307      8.46247         0.021625     -0.012391     -0.036655
Ti	      6.35913      4.21146      2.18713         0.009313     -0.010452      0.220290
Ti	      4.24791      2.10106      2.16395        -0.018440      0.032372      0.068375
Ti	      2.29118      4.07813      6.31930         0.208583     -0.172913     -0.166851
V	      6.39596      0.07905      6.40174        -0.214366     -0.064534     -0.053564
V	      8.57350      6.32469     10.48513        -0.060746     -0.035063      0.155761
V	      8.56316     10.39650     10.67222         0.050738      0.058979     -0.094341
V	      2.10746      2.11121      4.18051        -0.040796     -0.016870      0.023644
V	      4.23122      6.33187      6.41841         0.030674     -0.056270     -0.078435
Ni	      6.39860      4.17297     10.47675         0.155263      0.015394      0.145234
O	      2.25673      1.98298      2.07713         0.127549     -0.161045     -0.110895
O	      4.37119      4.09110      2.10726         0.203344     -0.114924      0.146192
O	      4.24939      1.98604      4.08708         0.060307      0.028286     -0.209701
O	      6.43112      4.18964      4.10507        -0.040057     -0.069088     -0.258583
O	      6.41574      1.96856      6.41200         0.073286      0.133126      0.036353
O	      8.61330      4.19163      6.25267         0.156969     -0.012276      0.106202
O	      2.10498      4.23294      4.37945         0.084230     -0.038852      0.187029
O	      4.19935      6.34367      4.32079        -0.017677     -0.058856     -0.086218
O	      4.13475      4.20693      6.38043        -0.291956     -0.075215      0.000679
O	      6.34304      6.40740      6.32478         0.108946      0.236199      0.071543
O	      6.44173      4.17876      8.50865         0.026884     -0.002032     -0.148792
O	      8.54705      6.27031      8.61786        -0.024586      0.009078     -0.112642
O	      2.11657      6.23039      6.39090        -0.196748     -0.009642      0.121638
O	      4.35805      8.46903      6.46529         0.065204      0.061195      0.174220
O	      4.16765      6.37934      8.54129        -0.116900      0.117864      0.083589
O	      6.27039      8.51962      8.36160        -0.108644      0.102177     -0.057815
O	      6.48422      6.26055     10.73234        -0.081076      0.013629     -0.190673
O	      8.59604      8.42929     10.58892        -0.150434      0.050428      0.039809
