# total energy = -225.26740965 eV
 
CRYSTAL
PRIMVEC
-0.057253 6.437771 6.054970 
6.440863 -0.062257 6.059844 
4.255008 4.256230 -0.002765 
PRIMCOORD
36 1
Li	      6.42640     10.61108      8.09391         0.018742     -0.043079     -0.086354
Li	      8.47261     10.55686     10.04602         0.023115     -0.038437     -0.003018
Li	      6.44222      8.54282     10.01413         0.021917     -0.022265     -0.019388
Li	      6.32777      2.24148      8.10329        -0.246967      0.206895     -0.019212
Li	      8.43024      4.27431      8.12123        -0.181766      0.205929     -0.066377
Li	      6.38134      4.22559      9.93442        -0.096010      0.050800      0.004697
Li	      4.30598      6.31523      6.09335        -0.020630     -0.001010      0.030778
Li	      4.31953      4.25140      8.10523         0.141705     -0.166195      0.059546
Li	      6.40652      6.30019      8.11501         0.168126     -0.124241      0.085556
Ti	      6.34681      6.40336     12.02597         0.032232      0.026957     -0.334756
Ti	      8.51751      2.09693      6.03075        -0.084801     -0.027687     -0.253267
Ti	      4.29444      8.35913      8.15240         0.172762     -0.319286      0.097409
Ti	      4.31574      4.38244      3.96665         0.034840      0.177283     -0.437267
Cu	      2.11810      2.14132      3.98785        -0.081484      0.046800     -0.251027
Cu	      6.31548      4.32590      6.14002         0.055283     -0.119391      0.124181
Cu	      8.50854      6.38580     10.00695         0.168330     -0.059776     -0.256904
Cu	      6.42066      8.45971      6.07122         0.023259      0.000205      0.051006
Ni	      8.49392      6.37453      6.10404         0.245196     -0.221384      0.306492
O	      2.26255      2.11055      1.99336         0.055611     -0.010384     -0.136494
O	      4.29320      4.14256      2.06377         0.037046      0.013515      0.289448
O	      4.32663      2.19790      4.01452         0.149492      0.050034     -0.283063
O	      6.25742      4.26294      4.14770        -0.117309      0.060008      0.148471
O	      6.52148      1.92476      6.12474         0.033837     -0.120381     -0.085849
O	      8.68644      4.13844      6.06290         0.148851     -0.025479     -0.034670
O	      2.26327      4.21817      4.12933        -0.002271     -0.109861     -0.001646
O	      4.19958      6.27046      4.04049        -0.094099     -0.183347      0.029495
O	      4.26109      4.17799      5.99780        -0.013458      0.117582      0.029445
O	      6.45177      6.39002      5.93070        -0.097359     -0.027094      0.214298
O	      6.40288      4.24550      8.00028        -0.083792      0.071750     -0.189693
O	      8.52474      6.35238      8.10899        -0.065544      0.056303     -0.091292
O	      1.95073      6.56676      5.98253        -0.046960      0.090996      0.204877
O	      4.05565      8.68694      6.12324        -0.060966      0.016083      0.022499
O	      4.19960      6.54044      8.07818         0.008720      0.346797     -0.012668
O	      6.19036      8.55144      7.97712        -0.151365     -0.014296      0.128853
O	      6.40191      6.34917     10.19524        -0.054661      0.063429      0.406184
O	      8.48258      8.55752     10.22437        -0.039621      0.032227      0.329709
