# total energy = -225.66739757 eV
 
CRYSTAL
PRIMVEC
-0.005993 6.217467 6.204370 
6.518484 -0.009860 6.208291 
4.323013 4.126149 0.015328 
PRIMCOORD
36 1
Li	      2.22367      8.24776      6.17434         0.034299      0.071567      0.001569
Li	      2.13742      0.04180      2.00663         0.027233     -0.003351      0.041794
Li	      4.29298      2.10274      2.00987        -0.046041     -0.018103      0.113016
Li	      8.63859      4.07428      4.26308        -0.004644      0.082464     -0.014945
Li	      0.12726      2.04903      2.02058         0.109163      0.058863      0.046670
Li	      6.53901      4.06870      6.23201        -0.023975     -0.023932      0.007263
Li	      4.23573      8.22963      4.19200        -0.054839     -0.056867     -0.007419
Li	      2.15386      4.16689      6.17993         0.018314      0.004036      0.022210
Li	      4.19599      6.38089      6.18085        -0.001471     -0.034771     -0.039014
Ti	      4.40776     10.22776      6.27350        -0.001539     -0.228080      0.375595
Ti	      6.44874      6.12960      4.10935         0.026363     -0.337262     -0.136739
Ti	      4.35476      4.19530      8.27513         0.095284      0.301345     -0.390860
Ti	      6.41075      6.20170      8.30992        -0.211550     -0.081603     -0.071052
Cu	      6.49988      2.09351      4.17187        -0.023346      0.091026      0.030545
Cu	      2.22454      4.10968      2.06365         0.041119     -0.297497     -0.120446
Cu	      4.35952      4.16703      4.17215         0.068396     -0.085443      0.006369
Cu	      8.67481      6.16189      6.22360        -0.088282     -0.029780      0.002425
Cu	      2.22072      6.16424      4.16835        -0.178516      0.099971      0.020523
O	      4.31290      4.01799      6.38904        -0.057969      0.098129      0.477687
O	      2.21419      2.11816      2.20405        -0.049571     -0.063338      0.166761
O	      4.46742      4.15804      1.90653         0.112275      0.015261     -0.527433
O	      4.19358      2.17121      4.24295        -0.331141      0.029223     -0.436885
O	      6.48325      4.23103      4.16161         0.109435      0.160612      0.009621
O	      6.38157      1.99007      6.10180         0.107155     -0.032321      0.034127
O	      8.77554      4.16809      6.28842         0.062644     -0.134763      0.054407
O	      2.30235      4.15061      4.05475        -0.112117      0.207378     -0.049679
O	      4.54598      6.17535      4.19980         0.287766      0.060425      0.001228
O	      6.58819      6.22662      6.28971        -0.067190     -0.019839      0.175104
O	      6.31660      4.23417      8.29271        -0.270201      0.128197      0.020280
O	      8.52091      6.17797      8.30580         0.134353      0.124288      0.500606
O	      2.02255      6.21977      6.11234        -0.051895      0.018762     -0.034105
O	      4.29135      8.37818      6.19200         0.028867      0.363207     -0.044066
O	      4.44386      6.12621      8.23613         0.151406     -0.223808      0.044849
O	      6.60370      8.18649      8.38137         0.099847     -0.050005     -0.116788
O	      6.36819      6.20649     10.25385        -0.077266     -0.022083     -0.088776
O	      8.67303      8.13393     10.24256         0.137636     -0.171910     -0.074441
