# total energy = -219.10190785 eV
 
CRYSTAL
PRIMVEC
-0.002302 6.243864 6.228068 
6.324357 -0.043079 6.269151 
4.187740 4.161685 -0.000336 
PRIMCOORD
36 1
Li	      6.34433      0.05911      6.18827         0.005740      0.048194     -0.013353
Li	      8.21244      2.11590      6.16237        -0.035638      0.046410      0.027857
Li	      8.35734      4.02887      4.27688         0.023669      0.008543      0.021464
Li	      6.48215      2.09997      4.30687         0.081637      0.007274     -0.033858
Li	      6.30107      2.05197      8.28017         0.003895      0.013878     -0.029403
Li	      4.22604      4.15716      4.15485         0.010117     -0.009727     -0.033860
Li	      6.40479      3.98996      6.24836         0.050326      0.030140      0.048449
Li	      8.39072      6.27967     10.42881        -0.023486      0.018360      0.004843
Li	      8.43477      8.25974      8.42047         0.027936     -0.041545      0.043547
Sc	      6.32124      6.23013      8.42124         0.026872     -0.008030      0.168218
Fe	      4.19910      2.13322      2.13365         0.018146     -0.071669     -0.045728
Fe	      8.44384      4.16102      8.29329         0.087597     -0.071078      0.057389
Fe	      6.27847      6.15418      4.17697        -0.000862      0.096520     -0.078057
Fe	      4.41285      2.04715      6.17966        -0.061548      0.005760     -0.017325
Fe	     10.37301      8.31212     10.47161         0.094033      0.024249     -0.003541
Fe	      4.11169      6.13158      6.20147         0.069223      0.051989      0.085334
Co	      6.27861      4.14880      2.08539        -0.031129     -0.001857      0.041597
Co	      2.10765      4.15081      6.22150        -0.043700      0.047104      0.033468
O	      2.17044      2.03425      2.09933        -0.058089     -0.013792     -0.004895
O	      4.24456      4.09157      2.07432        -0.044527      0.092145      0.002455
O	      4.12532      2.05171      4.15162        -0.030090      0.022469      0.010395
O	      6.27812      4.21331      3.99553        -0.013094     -0.194384     -0.142049
O	      6.26401      2.09043      6.24170         0.084136      0.007049      0.003725
O	      8.40169      4.20437      6.36026        -0.015695     -0.020809     -0.116726
O	      2.04271      4.08545      4.20601         0.001888     -0.016376      0.031204
O	      4.24130      6.27273      4.24168        -0.017999     -0.057339     -0.051126
O	      4.05660      4.13210      6.25684        -0.057865     -0.050815     -0.027440
O	      6.27076      6.32935      6.21976         0.005293     -0.023788      0.035124
O	      6.42033      4.16240      8.40410        -0.069902     -0.000680     -0.017311
O	      8.39108      6.14661      8.26645        -0.042338      0.133458      0.019058
O	      2.13192      6.08745      6.36157        -0.075962     -0.049986      0.082637
O	      4.34335      8.22865      6.26480         0.067159     -0.019404      0.007111
O	      4.12676      6.29538      8.24609         0.038103     -0.033366     -0.023995
O	      6.24556      8.40132      8.19970         0.036408     -0.045562     -0.025812
O	      6.32431      6.14593     10.39289         0.011177      0.058416     -0.072508
O	      8.49121      8.26008     10.43250        -0.121428      0.018250      0.013112
