# total energy = -221.00696127 eV
 
CRYSTAL
PRIMVEC
0.007416 6.303405 6.291802 
6.289189 0.012525 6.286680 
4.188455 4.194527 0.012748 
PRIMCOORD
36 1
Li	     10.42017      4.26449      6.35236        -0.043699      0.011052      0.018036
Li	      6.34604     10.42468      8.38598         0.074384      0.001990      0.003792
Li	      4.20043      0.02959      4.18266         0.022311      0.002143      0.038968
Li	      6.26537      2.10238      4.24687        -0.019286     -0.028772      0.108417
Li	     10.36726      6.23463      8.35727        -0.072153     -0.086243     -0.035273
Li	      8.44498      4.29457      8.27099         0.032779      0.017039     -0.048892
Li	      8.44954      6.25242      6.35564        -0.012762     -0.035981      0.003630
Li	      4.17429      6.24313      6.37612        -0.002840      0.016434      0.044106
Li	      4.15007      4.24969      8.34673        -0.010268      0.053152     -0.011487
Sc	      2.05120      2.07278      0.09060        -0.024541     -0.020641      0.064877
Fe	      4.25385      8.40850      8.39662        -0.011534      0.040466     -0.055793
Fe	      2.11725      2.06767      4.16259         0.017597      0.029357      0.040863
Fe	      4.22428      4.18369      4.16721        -0.030369      0.057908     -0.012910
Fe	      6.28589      4.13718      6.36696        -0.077609      0.047960      0.040427
Fe	      6.26166      4.22373     10.41647         0.025715      0.021084     -0.006294
Fe	      8.36849      6.33709     10.42947         0.049133     -0.028756      0.060943
Fe	      6.29180      6.34473      8.35438         0.025522     -0.009430     -0.047460
Co	      2.11742      4.23188      6.29649         0.008799      0.039161     -0.046814
O	      2.19415      2.06504      2.16388        -0.031801      0.000376     -0.053678
O	      4.19490      4.12379      2.21463         0.019361      0.039639     -0.087729
O	      4.13575      2.16877      4.13989         0.090049     -0.055181      0.093708
O	      6.20596      4.29135      4.33085         0.129596     -0.140924     -0.048510
O	      6.30749      2.17769      6.31573        -0.051160     -0.110062     -0.010353
O	      8.25440      4.13591      6.30262         0.122383      0.038094     -0.020177
O	      2.08675      4.18853      4.33527        -0.009226      0.003770      0.053198
O	      4.22934      6.34071      4.13431        -0.039272     -0.038372      0.015935
O	      4.11590      4.22270      6.19104        -0.034620      0.016468      0.066030
O	      6.30051      6.39454      6.26310        -0.010459      0.036664      0.000143
O	      6.25326      4.30104      8.38336        -0.002270     -0.039457      0.003490
O	      8.31078      6.29766      8.49570         0.028265      0.025398     -0.146592
O	      2.10749      6.20713      6.19510         0.016192     -0.108694      0.035924
O	      4.28588      8.42705      6.26396         0.096081     -0.007829     -0.006301
O	      4.30388      6.42203      8.41134        -0.064325     -0.055818     -0.011589
O	      6.28357      8.38938      8.24790         0.035835      0.051120     -0.048563
O	      6.35840      6.23565     10.41543        -0.077226      0.089910      0.058699
O	      8.48944      8.32082     10.55784        -0.168581      0.126974     -0.052771
