# total energy = -102.30511336 eV
 
CRYSTAL
PRIMVEC
0.000143 2.104913 2.104950 
3.993572 -0.000665 -0.001009 
-0.000540 8.988275 -8.987683 
PRIMCOORD
16 1
Li	      0.00825      2.15287      2.05576        -0.008663      0.007742     -0.008356
Li	      1.98239      1.90384      0.20300        -0.001033     -0.023864      0.021075
Li	      1.98216      6.94249     -4.83533        -0.002382      0.021670     -0.023452
Li	      0.00775      8.79511     -4.58591        -0.008476     -0.006223      0.007258
Ti	      2.07531      4.42313     -2.31588         0.109267     -0.000186      0.002083
Ti	      2.11688      8.91463     -6.81268         0.219123     -0.000718      0.000235
Ni	      3.98494      2.01318     -2.01250         0.006796      0.044232     -0.048152
Ni	      3.98475      4.72703     -4.72572         0.006882     -0.050339      0.036979
O	      3.97693      6.66008     -4.55485         0.008342      0.132234     -0.126996
O	      1.98662      9.01509     -4.80829         0.009763      0.066505     -0.058536
O	      3.96422      4.42159     -2.31747        -0.152872     -0.009577     -0.008868
O	      1.96831      6.40640     -2.20205         0.032498     -0.144495      0.157388
O	      3.97727      2.18464     -0.07923         0.007572     -0.134442      0.130665
O	      1.96846      4.53698     -0.33228         0.033082      0.156816     -0.146416
O	      3.95962      8.91476     -6.81262        -0.269292     -0.003550     -0.002288
O	      1.98652     10.91875     -6.71226         0.009393     -0.055805      0.067380
