# total energy = -221.80728788 eV
 
CRYSTAL
PRIMVEC
0.020408 6.332898 6.255731 
6.350926 0.014067 6.262031 
4.247738 4.240033 -0.004383 
PRIMCOORD
36 1
Li	      2.18069      8.42112      6.19468         0.030495     -0.054345     -0.069222
Li	      4.28049      6.32154     10.41784         0.053652     -0.056099     -0.050972
Li	      6.34499      6.40972      4.25841        -0.046303      0.065225      0.038134
Li	      8.39863      6.37776      6.25057        -0.050836      0.024177      0.016015
Li	      4.25280      8.40837      4.22893        -0.033967     -0.085777      0.078997
Li	      2.17002      6.35651      4.20100         0.021893      0.021613      0.077595
Li	      6.35197      8.36450      6.20448        -0.080347     -0.105759     -0.041283
Li	      4.29396      6.40502      6.18904         0.049768      0.042658     -0.067137
Li	      6.37030      6.35752      8.32032        -0.017431      0.009412      0.001672
Sc	      6.36450      6.29411     12.41158         0.001180     -0.113935     -0.122454
Fe	      2.19354      6.36413      8.26482        -0.038646     -0.024585      0.109262
Fe	      4.26859      8.33510      8.30501         0.020251      0.017521     -0.003696
Fe	      6.40672      8.42795     10.46783         0.065598      0.009247     -0.026469
Fe	      4.25190      6.37368      2.13764         0.063655      0.016034     -0.076494
Fe	      8.41591      4.31403      8.40071        -0.008036      0.046015      0.054644
Fe	      4.17011      4.26151      4.29884        -0.013375      0.024403      0.004375
Fe	      6.41173      4.40285      6.20080         0.014802     -0.120161      0.045216
Fe	      8.47349      8.44467      8.35769         0.055053      0.021084     -0.149289
O	      2.13895      2.10268      2.11147        -0.050593      0.029305      0.023807
O	      4.23237      4.26464      2.10608         0.039498     -0.027833      0.029120
O	      4.33548      2.22092      4.03452        -0.062728     -0.034266      0.088460
O	      6.28131      4.16868      4.17370         0.067134      0.056146     -0.092881
O	      6.37853      2.13817      6.25747         0.029081      0.080139      0.122909
O	      8.44914      4.23946      6.39747         0.023435     -0.015787     -0.071687
O	      2.20386      4.22633      4.07052        -0.095957     -0.011304      0.115522
O	      4.26411      6.24751      4.07191         0.011503      0.113356      0.107289
O	      4.32681      4.22669      6.28574        -0.003703     -0.001907      0.103739
O	      6.39318      6.26052      6.26136         0.004471      0.192511      0.038729
O	      6.36462      4.16594      8.31569        -0.015884      0.094054      0.040209
O	      8.59366      6.37003      8.32686        -0.079627      0.004254      0.004236
O	      2.06462      6.33444      6.37469         0.009554      0.036731     -0.167071
O	      4.26612      8.48307      6.37767        -0.038917     -0.023238     -0.133891
O	      4.16592      6.34616      8.35926         0.117597     -0.080682     -0.001608
O	      6.40158      8.53556      8.37721        -0.083546     -0.066102     -0.054438
O	      6.34707      6.45245     10.43809        -0.045825     -0.088409     -0.109133
O	      8.41750      8.48727     10.28945         0.087103      0.006305      0.137795
