# total energy = -193.26911297 eV
 
CRYSTAL
PRIMVEC
-0.025973 6.210651 6.219133 
6.168889 -0.007131 6.200030 
4.107400 4.122615 0.000446 
PRIMCOORD
36 1
Li	      4.07495     10.25890      6.21874         0.200582     -0.026167     -0.146741
Li	      4.12549      8.19979      8.15027         0.173904     -0.245023     -0.008652
Li	      8.25778     10.25673     10.35345         0.052373     -0.078699     -0.162649
Li	      8.14474      6.19943      6.25168         0.011987      0.049045     -0.025694
Li	      6.18112      4.16609      6.26510        -0.137249      0.043234     -0.072515
Li	      8.14972      6.22440     10.35245        -0.012174      0.012201      0.019140
Li	      6.13110      8.23696      6.28485        -0.079005     -0.003460      0.025740
Li	      4.07569      6.23553      6.27952        -0.065577      0.067010      0.030956
Li	      6.11400      6.20692      8.23855        -0.116540      0.108253      0.100282
Sc	      6.17966      8.13791     10.36237        -0.075012     -0.041608     -0.264525
Mn	      4.08015      4.14976      4.21526         0.138418      0.073386      0.355009
Co	      6.18222      6.19596      4.19572         0.259739     -0.205353      0.234500
Cu	      6.15704      2.08827      8.22883        -0.299090      0.030064      0.018324
Ni	      2.06539      8.28521      6.23578         0.154330     -0.356159     -0.140147
Ni	      2.04366      6.20523      8.24191         1.193617     -0.455395     -0.732347
Ni	      8.20792      4.15785      8.22235        -0.205990      0.202476     -0.797715
Ni	     10.21745      8.33049     10.39303         0.087587      0.017227      0.106995
Ni	      4.08853      4.13016      8.19137        -0.300222      0.105874     -0.074961
O	      6.15136      6.18980      5.97567         0.028393     -0.058679      0.243573
O	      2.01087      2.11190      2.23141         0.080874     -0.017514     -0.071616
O	      4.14170      4.21106      2.21543        -0.873478     -0.008720      0.067624
O	      4.00219      2.20459      4.12574         0.670217      0.132363      0.062202
O	      6.04372      4.22384      4.06321        -0.283655     -0.791978      0.344798
O	      6.31647      2.06894      6.26093        -0.012495      0.080367     -0.039625
O	      8.23412      3.98189      6.28585        -0.035945      0.253995      0.877402
O	      2.11927      4.02129      4.09293         0.196020      1.102325     -0.094799
O	      4.25315      6.12438      4.09633        -0.817654     -0.182878     -0.095368
O	      4.09441      4.14508      6.07349        -0.001528     -0.013180     -0.243694
O	      6.13766      4.06981      8.33831         1.097221      0.006452     -0.049067
O	      8.31183      6.18780      8.23795        -0.068671     -0.561940     -0.043284
O	      2.03349      6.37617      6.34530        -0.294507     -0.041408     -0.055367
O	      3.95298      8.26675      6.18267         0.019539      0.076982      0.120843
O	      3.95427      6.11104      8.27408         0.054367      0.499328      0.262074
O	      6.17374      8.28225      8.27771        -0.472593      0.147476      0.013883
O	      6.14729      6.19673     10.31208        -0.116148      0.041744      0.083310
O	      8.20264      8.24029     10.34073        -0.151636      0.038360      0.152106
