# total energy = -194.32409887 eV
 
CRYSTAL
PRIMVEC
0.019528 6.376561 6.240119 
6.049597 0.014081 6.245705 
4.050496 4.272118 -0.008255 
PRIMCOORD
36 1
Li	      4.01057      4.21274      0.05430        -0.074314      0.029213     -0.059423
Li	      8.09774      8.53254     12.45622        -0.061654      0.041011     -0.087897
Li	      4.00532      2.22076      2.12439         0.030631      0.090941     -0.024003
Li	      4.04810      0.08291      4.19497        -0.018916     -0.007390      0.056609
Li	      0.08033      2.04504      2.03217        -0.100087      0.017498     -0.153221
Li	      8.09732      4.32783      8.34725         0.012120      0.056551      0.055518
Li	      4.02246      4.22368      4.11080        -0.039290      0.038117     -0.023884
Li	      8.09520      6.32485      6.19032         0.102188     -0.023270      0.050865
Li	      2.03992      6.35327      4.14256        -0.017223     -0.051203      0.010426
Sc	      8.13352      8.44457      8.38482         0.027541     -0.143247      0.050889
Mn	      5.98264      4.36632      2.09193        -0.104805     -0.731944      0.084331
Co	      6.15148      4.20200      6.23255        -0.016702     -0.215052      0.011117
Cu	      4.04909      6.44832      6.21691        -0.255767     -0.045926      0.033010
Cu	      6.05114      6.36968      8.34832         0.025503     -0.001045      0.158859
Ni	      5.98569      2.13256      4.16913         0.149144      0.063669     -0.004465
Ni	      2.05158      2.14546      4.11476         0.597174     -0.231336     -0.669199
Ni	      4.08154      8.50317      4.16832        -0.056097      0.201607     -0.174971
Ni	      2.03459      4.29972      6.23905         0.116893     -0.061464     -0.000919
O	      4.09360      8.46099      6.11480        -0.146434      0.008027      0.266762
O	      6.06426      6.42978     10.22769        -0.009348     -0.014010      0.105289
O	      2.04895      1.94973      2.11437        -0.062276      0.440797      0.436098
O	      4.14955      4.33278      2.01731         0.119112     -0.007534     -0.004479
O	      3.95882      2.15952      4.19943        -0.509160      0.015976      0.027087
O	      6.06978      4.33202      4.04688        -0.013206     -0.084638     -0.153437
O	      6.01604      2.34317      6.11630         0.055412      0.002879      0.385997
O	      7.87890      4.27612      6.23843         0.057946      0.036499      0.013851
O	      1.95441      4.13985      4.23907         0.184908      0.282474     -0.186137
O	      4.17113      6.44798      4.26704         0.036590     -0.216315      0.212028
O	      4.20474      4.37905      6.24029         0.111588      0.014388     -0.011885
O	      6.03616      6.32738      6.39187        -0.020178     -0.033467     -0.149498
O	      6.09436      4.07432      8.37238         0.003551     -0.085245     -0.048164
O	      7.90086      6.40094      8.30053         0.202986      0.026502     -0.019388
O	      2.09063      6.35010      6.38560        -0.024252      0.203503      0.018662
O	      4.11468      6.36784      8.24094        -0.114548      0.138536     -0.115781
O	      6.05835      8.76988      8.32984        -0.053608      0.231237     -0.095168
O	      8.16632      8.52166     10.40464        -0.135421      0.013659      0.004520
