# total energy = -194.55465431 eV
 
CRYSTAL
PRIMVEC
0.022911 6.251144 6.177446 
6.212598 0.032517 6.167454 
4.159246 4.178295 0.004319 
PRIMCOORD
36 1
Li	      6.20386      6.27702     12.23297         0.012147      0.004298      0.007733
Li	      8.37869     10.41921     10.34906        -0.035335      0.061137     -0.065568
Li	      2.15967      2.14772      4.18338         0.042063     -0.025689     -0.004666
Li	      8.22770      6.34220      6.16527        -0.045464      0.081272      0.094059
Li	      6.26459      4.18295      6.19644        -0.077261      0.044218      0.074921
Li	      6.21273      4.29756     10.28007        -0.027370      0.026106     -0.066026
Li	      8.23297      6.29846     10.24396         0.047871      0.000533     -0.071048
Li	      2.14139      4.11666      6.12065         0.067546     -0.050347     -0.048537
Li	      8.33330      8.31623      8.28857         0.189394     -0.089218     -0.005521
Sc	      4.22813      6.23523      6.07134         0.055947     -0.220636     -0.255247
Mn	      6.25932     10.40383      8.24722        -0.082023      0.297367      0.180999
Co	     10.35884      6.33205      8.25189        -0.081694      0.134340      0.293212
Cu	      8.24794      2.15128      6.18063         0.012934     -0.135990     -0.058893
Cu	      4.20670      8.32320      8.21393        -0.036091     -0.062954      0.055094
Cu	      8.25954      4.24468      8.23174         0.136951      0.044631      0.100579
Ni	      6.21792      2.09418      4.13916         0.371945     -0.546219      0.188610
Ni	      4.14926      4.18314      4.09514         0.216859      0.177591      0.045324
Ni	      6.27916      6.29409      8.23393         0.083029     -0.248735     -0.039012
O	      8.43862      6.22671      8.18763         0.164120      0.374695      0.032816
O	      6.22246      6.44191     10.19014        -0.140493     -0.493586      0.183373
O	      8.13582      8.37860     10.40910         0.548938      0.213402     -0.032212
O	      1.96179      1.97337      2.08408         0.055862     -0.220735     -0.011953
O	      4.23252      4.33897      2.18565         0.008195     -0.026886     -0.270113
O	      4.29039      2.17335      3.98688        -0.738851     -0.368885     -0.167030
O	      6.12862      4.06659      4.01088         0.166334      0.626709     -0.096729
O	      6.30429      2.11794      6.32745         0.018218     -0.041084     -0.344894
O	      8.30144      4.08259      6.30795        -0.051761      0.087550      0.537488
O	      2.24599      4.16004      3.99877        -0.529405      0.084102     -0.439173
O	      4.17414      6.21661      4.01504        -0.026470      0.421247      0.058402
O	      4.13584      4.17509      5.96030        -0.049695      0.009041      0.255278
O	      6.21644      6.27410      6.26681        -0.007668      0.056790     -0.200533
O	      6.29216      4.08883      8.30085        -0.217945     -0.165973     -0.061186
O	      2.06893      6.33739      6.33746        -0.071075      0.012724     -0.070008
O	      4.05823      8.35905      6.25347        -0.050208      0.080793      0.050348
O	      4.02526      6.20394      8.22317         0.081013     -0.031823      0.032795
O	      6.25126      8.47826      8.19694        -0.010552     -0.109788      0.117319
