# total energy = -196.45861777 eV
 
CRYSTAL
PRIMVEC
0.003537 6.140781 6.286942 
6.153557 0.004463 6.285571 
4.127180 4.118102 -0.022366 
PRIMCOORD
36 1
Li	      8.17343      2.11268      6.35422         0.047502      0.025040     -0.094890
Li	      4.09490      2.01631      2.10990         0.080527     -0.149034      0.002469
Li	      8.17762      4.20393      4.20095         0.034793     -0.129354     -0.093074
Li	      4.13226      4.07213      4.20772        -0.023765      0.022266      0.100192
Li	      4.09629      2.00406      6.20448         0.083202      0.130720      0.063421
Li	      6.20604      4.13429      6.19603        -0.044073     -0.082891      0.011595
Li	      8.20607      6.17632     10.49242        -0.020670      0.142742     -0.063306
Li	      4.15967      6.07679      6.34890         0.015163     -0.061906      0.050195
Li	      6.11614      6.20203      8.25439        -0.048915     -0.031007     -0.013456
Sc	     10.23496      8.27840     10.52750        -0.711852      0.217970     -0.246423
Mn	     10.26123      6.17784      8.37117        -0.362332      0.160023     -0.077005
Co	      4.10412      4.09827      8.33040        -0.393702     -0.251158      0.268973
Cu	     10.26424      4.15342      6.29631        -0.174385      0.009748     -0.246150
Cu	      6.10924      2.08472      4.16386         0.620171     -0.144112     -0.238128
Cu	      6.23929      6.13410      4.20444         0.164288     -0.254984     -0.320217
Cu	      2.08667      4.07698      6.26584         0.404654     -0.210751      0.107594
Ni	      2.09813      6.11551      8.38271         0.204139      0.012082      0.130686
Ni	      8.23308      4.14440      8.33550        -0.187747      0.177010      0.126353
O	      6.18223      6.22701      6.09275        -0.058156      0.188825      0.036257
O	      1.99354      6.05630      6.35963        -0.204532     -0.072804     -0.052003
O	      4.10293      5.93142      8.35581         0.061147      0.560799     -0.116543
O	      6.31315      8.17629      8.23777         0.046404     -0.114135      0.245777
O	      1.96166      2.06484      2.22706        -0.010556      0.028178      0.263020
O	      4.12023      4.25273      2.02518         0.101843      0.003767      0.105589
O	      4.23306      2.08978      4.11984        -0.717495     -0.092910      0.006636
O	      6.14858      4.00181      4.11250         0.070985      0.379437      0.103049
O	      6.20384      2.00744      6.48248         0.098803      0.023348     -0.036589
O	      8.30541      4.09628      6.35852         0.214335     -0.055468     -0.131269
O	      2.03764      4.11144      4.17051         0.133852     -0.011986      0.002412
O	      4.11878      6.18659      4.01681         0.085478     -0.057668      0.154211
O	      4.06579      4.06826      6.47942        -0.194848      0.135338     -0.566553
O	      6.09264      4.01575      8.38025         0.084673     -0.019255      0.032468
O	      8.35068      6.24764      8.37636         0.201066     -0.311338     -0.029600
O	      4.15797      8.26075      6.29380         0.027663      0.019361      0.072241
O	      6.14403      6.27274     10.58317         0.000435     -0.226822      0.058519
O	      8.10856      8.20189     10.25569         0.371903      0.040927      0.383549
