# total energy = -196.23137429 eV
 
CRYSTAL
PRIMVEC
0.004548 6.113302 6.292994 
6.176152 -0.008636 6.306536 
4.120927 4.088045 -0.009545 
PRIMCOORD
36 1
Li	      0.03123      6.11209      6.31013         0.075681     -0.064056      0.011957
Li	      2.09485      8.08978      6.29602         0.078771     -0.099813     -0.039311
Li	      2.10893      6.09704      8.42418         0.007763     -0.016671     -0.101514
Li	      4.10828      6.13749     10.36009        -0.003691     -0.035235     -0.042128
Li	      4.09126      6.04957      2.15383         0.044530     -0.036621     -0.047422
Li	      4.17456      4.04296      4.13490        -0.000706      0.024706      0.025355
Li	      4.02238      6.19729      6.35320        -0.066683      0.044846      0.046504
Li	      8.18657      8.19838      8.41761        -0.027543      0.073839     -0.055840
Li	      6.12832      6.17460      8.48327        -0.060695     -0.002794     -0.027058
Sc	      6.12081      4.08903      6.34488        -0.170573      0.090601      0.247771
Mn	      6.13734      4.09402     10.45978        -0.333308      0.404349      0.219144
Co	      6.15932      2.03333      4.18803         0.240693      0.102650      0.096789
Cu	      4.11407      2.02977      2.11187         0.043075     -0.066936     -0.164845
Cu	      2.09633      4.08235      2.08305        -0.123868     -0.166060     -0.173537
Cu	      2.09016      1.98789      4.14325        -0.107523     -0.159157      0.273540
Cu	      8.28161      6.10420      6.33539        -0.010906      0.048495      0.283191
Cu	      8.24123      6.12870     10.49415         0.057598      0.112270     -0.000496
Ni	      2.06315      4.09586      6.30704        -0.042440     -0.036231      0.265045
O	      8.27084      6.03067      8.37261        -0.072974      0.163993      0.043647
O	      2.07565      5.99419      6.19716         0.033269      0.559357     -0.011481
O	      4.12109      6.30088      8.35118         0.032057     -0.161778      0.085213
O	      6.25761      6.10680     10.47120         0.104272     -0.478811     -0.112488
O	      2.20316      2.05453      2.20370        -0.064732      0.071281      0.003386
O	      4.04875      3.91329      2.12544         0.130410      0.159042      0.031093
O	      4.29753      2.00705      4.37572        -0.688745     -0.081406     -0.139816
O	      6.19217      3.98482      4.27756         0.083268      0.401580     -0.226177
O	      6.17736      2.02479      6.15151         0.025538     -0.033984      0.208799
O	      8.21352      4.12536      6.42955         0.132316     -0.022749     -0.071695
O	      1.91188      4.12310      4.12430         0.333965     -0.113740     -0.122748
O	      4.05683      6.28214      4.14492         0.040981     -0.469765     -0.057467
O	      4.01870      4.01736      6.38446         0.485819     -0.016970     -0.003785
O	      6.25325      6.20305      6.11421        -0.030110     -0.299339     -0.085252
O	      6.20450      4.07632      8.47125        -0.035253     -0.013570     -0.077746
O	      4.23011      8.18331      6.03382        -0.452454     -0.065703     -0.115949
O	      6.01002      8.17533      8.52131         0.122221      0.028142     -0.070409
O	      8.28295      8.11135     10.46993         0.219975      0.156238     -0.094269
