# total energy = -198.25798512 eV
 
CRYSTAL
PRIMVEC
0.008530 6.026703 6.269953 
6.253044 -0.002250 6.280886 
4.180604 4.037613 -0.013500 
PRIMCOORD
36 1
Li	      6.22046      0.02010      6.25239        -0.046285     -0.002864      0.024791
Li	      6.15916      4.12392      2.10791        -0.076539      0.030440      0.021431
Li	      8.35957      4.03052      4.25810        -0.006551      0.047515      0.032557
Li	      4.25621      5.96490      2.19525         0.032798     -0.020454      0.074289
Li	      6.16179      6.02937      4.26691         0.026511     -0.009228      0.005992
Li	      8.27946      6.05915      6.23999         0.023538     -0.000816     -0.020840
Li	      6.26649      4.07379      6.20138        -0.018702     -0.032050     -0.011218
Li	      2.13664      6.02792      4.15669         0.043430      0.011047     -0.016134
Li	      4.26080      6.00386      6.17865         0.023442      0.012003     -0.012688
Sc	      4.11892      2.00907      2.05929        -0.070060      0.068846      0.005446
Mn	      4.18914      4.01648      8.33658         0.089132     -0.085463      0.023101
Co	      2.05759      7.98408      6.26692        -0.011788      0.191968     -0.008855
Co	      6.28389      2.03764      4.21634         0.033586      0.032289      0.121105
Cu	      6.28557      6.01606      8.31851        -0.004632     -0.042272      0.022708
Ni	      2.11294      4.04815      2.09513        -0.075177      0.023290     -0.041314
Ni	      4.19712      4.06613      4.19161        -0.082293      0.030509      0.089918
Ni	      4.22015      8.02981      4.20866        -0.035305     -0.031435      0.047322
Ni	      2.12143      4.03271      6.21138        -0.086366      0.160745      0.019896
O	      6.28026      6.08452      6.35995        -0.011552     -0.163319      0.012353
O	      2.10070      2.01909      2.04951        -0.052454     -0.142637     -0.048065
O	      4.13394      4.02860      2.12514         0.144540      0.014312     -0.140161
O	      4.34392      2.09972      4.19613         0.065091     -0.230763      0.014261
O	      6.18019      3.88674      4.17029         0.166041     -0.080848     -0.054146
O	      6.35930      1.97800      6.02077        -0.013134     -0.002519     -0.150407
O	      8.31384      3.78009      6.32035        -0.006745     -0.206938     -0.117064
O	      2.13452      4.02701      4.18137        -0.026342     -0.025674      0.004800
O	      4.19922      5.98863      4.18557         0.009250      0.153443     -0.004056
O	      4.11713      4.04539      6.41859         0.167319     -0.000187      0.113486
O	      6.14276      4.03615      8.46266        -0.108742     -0.110183     -0.121357
O	      8.28763      6.10672      8.31375         0.096741      0.151374     -0.001715
O	      2.09347      6.21827      6.26374        -0.002613      0.059236      0.011804
O	      4.19753      8.07670      6.20952        -0.080584     -0.016276      0.143504
O	      4.24294      5.93904      8.38547        -0.054468     -0.036943     -0.009546
O	      6.36922      8.03887      8.43210         0.058925      0.130371      0.054421
O	      6.25337      6.13907     10.34745         0.002942      0.106247     -0.053776
O	      8.26968      8.05842     10.34611        -0.112954      0.017235     -0.031843
