# total energy = -198.24584123 eV
 
CRYSTAL
PRIMVEC
-0.009519 6.268218 6.327390 
6.009210 0.004459 6.312976 
4.030567 4.193663 -0.021293 
PRIMCOORD
36 1
Li	      4.05002     10.43949      6.32862         0.047803      0.013259     -0.026923
Li	      4.00751      8.28798      8.42942         0.064490     -0.036579      0.002349
Li	      4.05798      6.28707     10.40768         0.071882     -0.007002     -0.104585
Li	     10.01053      6.28181      8.41819        -0.019949      0.105387      0.005371
Li	      8.02616      6.26053      6.33398         0.001122     -0.018104      0.040545
Li	      3.97481      8.28377      4.22877        -0.002103     -0.064600     -0.050316
Li	      4.01451      6.28266      6.38526         0.014316      0.040629      0.045365
Li	      3.99597      4.28154      8.41829         0.089394      0.083447      0.059946
Li	      5.99235      6.24149      8.40716        -0.057221     -0.089181     -0.009112
Sc	      3.97916      4.22143      4.18205         0.056214     -0.019504     -0.170707
Mn	      6.04562      8.38257     10.53663         0.059526     -0.014637     -0.082367
Co	      6.01393      4.20401      6.38259         0.262614      0.014180     -0.941576
Co	      5.96876      8.43903      6.36861        -0.284687      0.069879      0.084443
Cu	      2.01584      6.30958      8.38896        -0.076249     -0.081400     -0.023660
Cu	      8.00742      4.21742      8.40156        -0.123516      0.101433      0.186651
Ni	      2.08649      8.35505      6.32532         0.117891     -0.142413      0.019995
Ni	      6.05202      6.23782      4.19400        -0.029690     -0.047131      0.017169
Ni	      8.00846      6.32482     10.47504         0.008132     -0.014078     -0.053680
O	      7.99618      6.19400      8.57276         0.031940     -0.004078     -0.265764
O	      3.85306      6.29099      8.41662         0.167911      0.012953     -0.064113
O	      2.01611      1.94966      2.10319        -0.023398      0.096096     -0.032277
O	      4.08309      4.20319      2.08189        -0.018040     -0.013028      0.001364
O	      4.12513      2.11108      4.21014         0.084285      0.045792      0.089657
O	      6.07030      4.13535      4.45077        -0.036857     -0.036827      0.012961
O	      6.05580      2.25989      6.17057        -0.262231      0.174414      0.125662
O	      7.92043      4.15225      6.46820        -0.476706      0.010114     -0.143494
O	      1.93106      4.09683      4.13316         0.000870      0.073706      0.055283
O	      3.96084      6.27134      4.16188         0.089672     -0.159735      0.071761
O	      3.90606      4.13504      6.32091         0.369097     -0.042745      0.027939
O	      6.02527      6.10292      6.23728        -0.111996     -0.306397      0.263085
O	      6.04193      4.16498      8.20702        -0.034407      0.050934      0.568800
O	      2.00827      6.25144      6.06477         0.007573     -0.092821      0.219887
O	      4.17498      8.35778      6.30848         0.263623      0.040169     -0.013425
O	      6.03921      8.58282      8.50771        -0.008169     -0.038382      0.047851
O	      6.08379      6.50016     10.49614        -0.183130      0.158443      0.043870
O	      7.96288      8.39149     10.56996        -0.060006      0.137804     -0.007956
