# total energy = -103.13186819 eV
 
CRYSTAL
PRIMVEC
-0.000594 2.116965 2.115381 
6.076841 -0.030633 -2.087884 
-2.082949 6.374495 -4.253989 
PRIMCOORD
16 1
Li	     -1.94784      6.27404     -4.13848         0.023488      0.009877     -0.003442
Li	      1.98885      1.98112      0.15483        -0.030293     -0.005076     -0.007752
Li	      4.04316      4.37178     -4.34436         0.025596     -0.003997     -0.014236
Li	     -0.17770      6.47836     -2.22176        -0.025194      0.000572     -0.002955
Ti	     -0.02316      4.25315      0.00717         0.004829      0.012822      0.047017
Ti	      1.97495      6.43770     -4.14959        -0.006565      0.050422      0.037761
Ni	      3.99996      2.04055     -2.08351        -0.030805     -0.051327      0.062632
Ni	      2.03138      4.24790     -2.17254         0.038970      0.063569     -0.052282
O	      4.08676      4.10807     -2.04344         0.195710      0.105035     -0.085569
O	      4.04146      2.03854      0.06665         0.011724     -0.186152      0.091298
O	      1.98836      6.39990     -2.17538         0.005910      0.095068     -0.173843
O	      1.94561      2.17238     -2.22223        -0.209774     -0.076644      0.106382
O	      3.87459      6.35683     -4.23683        -0.164994     -0.004413      0.019319
O	      0.07599      6.35070     -4.23216         0.155291      0.013516      0.019038
O	     -0.04051      4.10293     -2.03264        -0.102269     -0.103596      0.073791
O	     -0.00541      2.21230     -0.14070         0.108376      0.080325     -0.117158
