# total energy = -198.75681885 eV
 
CRYSTAL
PRIMVEC
-0.008259 6.176064 6.169701 
6.293460 0.015989 6.145625 
4.213267 4.118639 -0.006708 
PRIMCOORD
36 1
Li	      6.36541      6.27288     12.24864        -0.149530     -0.007272      0.017365
Li	      4.24490      6.22116     10.24545         0.039229      0.083637     -0.122803
Li	      6.32549      8.11629     10.26608        -0.007502     -0.060046     -0.068318
Li	     10.43089      6.19024      8.17739         0.031383     -0.048863     -0.049728
Li	      4.25735      2.07319      6.17395        -0.092243      0.098604     -0.096119
Li	      8.28710      6.23661     10.22107        -0.159918     -0.017405     -0.009924
Li	      2.09621      4.17032      6.21271         0.100035     -0.161247      0.037444
Li	      4.18582      6.13640      6.16584         0.069252     -0.005616      0.211803
Li	      6.38324      6.24216      8.26922        -0.113663     -0.027670      0.018858
Sc	     10.43387      8.30010     10.32826         0.139616      0.460904     -0.117726
Mn	      8.41160      4.18228      8.17659         0.194575     -0.169278     -0.163115
Co	      4.17064      8.20948      8.19552         0.335338      0.455357     -0.005761
Co	      6.30335      4.14395      6.17054         0.339218     -0.400575      0.210232
Cu	      8.32661      8.22913     12.23268         0.021170      0.213602      0.312835
Cu	      2.08332      6.14516      8.17534         0.050328      0.017492      0.233547
Cu	      6.31231      6.15669      4.15722         0.464139      0.079331     -0.057879
Cu	      8.37480      8.18529      8.19084         0.114816      0.096903     -0.642516
Ni	      4.20483      4.15468      4.15354        -0.073378     -0.255390     -0.056631
O	      6.37483      6.00374      6.10063        -0.075314      0.393065     -0.325891
O	      2.05558      6.25929      6.25253        -0.057647      0.637489     -0.201165
O	      4.05922      6.35562      8.21827        -0.053686     -0.767824     -0.005952
O	      6.10999      8.34378      8.17592         0.000770     -0.153724     -0.014821
O	      2.23451      2.07630      2.14110        -0.341357      0.081113      0.125959
O	      4.09997      3.97625      2.03058        -0.176680      0.395251      0.110520
O	      4.12517      2.10183      3.90345        -0.475230      0.032493      0.708858
O	      6.24871      4.19284      4.22692         0.023460      0.006729     -0.299666
O	      6.37427      2.25118      6.13202         0.632949     -0.247696      0.038376
O	      8.26800      4.06658      6.25305         0.253584     -0.516058     -0.012948
O	      2.11061      4.07235      3.99745         0.092058      0.010814      0.151099
O	      4.32989      6.17455      4.10995         0.270701     -0.282117      0.064705
O	      4.40901      4.09536      6.23928        -0.549178      0.035961      0.232308
O	      6.47474      4.13012      8.13735        -0.076744     -0.027573     -0.061054
O	      8.45957      6.02323      8.17791         0.021529      0.233842      0.025760
O	      4.10550      8.24034      6.28271        -0.646596     -0.107073     -0.402028
O	      6.26355      6.15270     10.28267         0.147366      0.039930     -0.074026
O	      8.42051      8.22725     10.08180        -0.292850     -0.117092      0.288402
