# total energy = -198.85614296 eV
 
CRYSTAL
PRIMVEC
-0.008609 6.195605 6.329752 
6.237104 0.003739 6.317390 
4.131259 4.095596 0.029327 
PRIMCOORD
36 1
Li	      8.24567      8.25128     12.58191        -0.096514      0.063002     -0.069507
Li	      2.07270      6.20352      8.39304         0.007343      0.047098     -0.040099
Li	      4.15290      8.20886      8.44657        -0.065456      0.001541     -0.051543
Li	      4.18026      6.22381     10.52675        -0.009595     -0.065185      0.098918
Li	      6.24489      8.21604     10.54834         0.019276      0.099091      0.150650
Li	      6.24481      2.04746      8.36831         0.026344      0.140694     -0.201623
Li	      4.20830      2.06923      6.22331         0.061392     -0.034771     -0.035906
Li	     10.27551      8.28540     10.68689        -0.046292      0.033837      0.022543
Li	      6.15208      6.25787      8.50987         0.024678     -0.102201     -0.022936
Sc	      8.31219      4.14295      8.38337        -0.484980     -0.140953     -0.371857
Mn	      6.22541      6.13008      4.25251        -0.103741     -0.306493      0.214651
Co	      6.20659      4.06004      6.36296         0.176028      0.467215     -0.072229
Co	      4.16343      6.16536      6.37450         0.047450     -0.110351      0.098124
Cu	      6.21503      0.03335      6.29156        -0.179042      0.285835      0.010166
Cu	      4.17468      4.07566      4.16354         0.168503     -0.044214      0.137110
Cu	      8.26324      6.25439     10.55158         0.107951     -0.022075      0.212932
Cu	      6.19043      8.23488      6.43270         0.048366     -0.321782     -0.069196
Cu	      8.26512      8.25593      8.49617         0.305269     -0.009670      0.028358
O	      2.24275      6.11073      6.23609         0.048361      0.215602     -0.054515
O	      4.22879      8.06509      6.35995        -0.093961      0.169068      0.019685
O	      6.29024      8.24565      8.36425         0.209003     -0.034919      0.152550
O	      6.31969      6.20351     10.71681        -0.172391     -0.127715      0.152086
O	      8.30885      8.18986     10.48093         0.065808      0.156902     -0.011165
O	      2.02708      2.06765      2.35586         0.021779      0.021744      0.022329
O	      4.10803      4.12712      1.90691         0.182417     -0.095057      0.110793
O	      3.99057      2.11654      4.22340         0.019896      0.102601     -0.105018
O	      6.16721      4.20366      4.42336        -0.202071      0.027302     -0.442684
O	      6.19903      2.24981      6.28598        -0.130852     -1.012160     -0.215138
O	      8.14694      4.09043      6.34452         0.443952      0.210235      0.116692
O	      2.12333      4.01054      4.28183         0.106441      0.068797     -0.035153
O	      4.21528      6.07657      4.38958         0.056924     -0.143565      0.101896
O	      4.23492      4.21636      6.45066        -0.344584      0.166735     -0.261714
O	      6.11472      6.08588      6.24866        -0.016218      0.310217     -0.189274
O	      6.17855      4.14462      8.21356        -0.262728     -0.024950      0.755883
O	      8.27164      6.21152      8.61105         0.027212      0.188541     -0.063586
O	      4.14315      6.13190      8.28618         0.034031     -0.179997     -0.092222
