# total energy = -202.07430233 eV
 
CRYSTAL
PRIMVEC
0.000375 6.268158 6.178868 
6.249809 -0.035953 6.215364 
4.146974 4.183464 -0.004378 
PRIMCOORD
36 1
Li	      4.20216      8.18714      8.29353         0.046822     -0.066203      0.005509
Li	      4.14011      6.24770     10.22913         0.008543      0.012219      0.056619
Li	      6.16394      6.18232      4.15898        -0.038397     -0.046787      0.014055
Li	      4.25737      4.20667      4.18818         0.077252     -0.016750      0.011102
Li	      8.27444      6.28212      6.20068         0.007569      0.021254     -0.025576
Li	      6.12756      4.33537      6.15996         0.023554     -0.009292     -0.043198
Li	      8.34198      6.26745     10.25375        -0.015688      0.034479      0.019499
Li	      4.29048      6.12635      6.26088        -0.000529     -0.017120     -0.021636
Li	      6.14116      6.24821      8.16018        -0.021402     -0.025433     -0.060261
Sc	      2.17222      4.06042      6.10859         0.083515     -0.121583     -0.059469
Mn	     10.36687      4.17242      6.24944        -0.038647      0.173818     -0.176340
Co	      6.19852      2.09385      4.11594        -0.046727      0.182898     -0.041202
Co	      4.13011      6.28778      2.10837        -0.107760      0.048362      0.020871
Co	      2.07391      4.20242      2.11760        -0.310951      0.275996      0.370619
Cu	      2.14530      6.24819      8.29278        -0.098678      0.063352     -0.132615
Ni	      2.06593      2.09200      0.00570         0.068193     -0.013440     -0.047835
Ni	     10.36399      8.32163     10.31505        -0.105387      0.060414      0.022737
Ni	      4.17456      4.17494      8.20818         0.328397     -0.044843      0.001421
O	      4.10826      6.22751      8.24029         0.040480      0.001584     -0.090367
O	      1.91477      2.07344      2.07607         0.061998     -0.176395      0.098957
O	      4.07100      4.32415      2.00646         0.746859      0.032203     -0.028427
O	      4.46745      2.06701      4.13713         0.182361      0.002155     -0.015259
O	      6.27154      4.04403      4.01326        -0.097561     -0.279906      0.407734
O	      6.27584      1.93823      6.34322        -0.100421     -0.253735      0.049252
O	      8.43366      4.12090      6.43161         0.236902     -0.035066     -0.393524
O	      2.03123      4.19756      3.97905         0.198042     -0.015406      0.291090
O	      4.13082      6.33078      3.92713        -0.020561     -0.008563     -0.020707
O	      4.15196      4.17432      6.17233         0.021538      0.047086     -0.096099
O	      6.24342      6.27688      6.15335        -0.015980      0.097535     -0.017030
O	      6.33136      4.00049      8.30832        -0.752514     -0.061145     -0.271907
O	      8.52479      6.25421      8.25560         0.070189     -0.084174     -0.008885
O	      1.92685      6.28834      6.30764        -0.237779     -0.084358     -0.290080
O	      4.11400      8.53337      6.13797         0.001610      0.164261      0.133011
O	      6.26081      8.35487      8.23727        -0.140629      0.148440      0.215319
O	      6.21321      6.30765     10.52767         0.078915      0.022874      0.076802
O	      8.12075      8.32303     10.33386        -0.133128     -0.028733      0.045820
