# total energy = -201.51177980 eV
 
CRYSTAL
PRIMVEC
-0.045079 6.117644 6.207966 
6.336336 -0.000732 6.164065 
4.236880 4.061850 -0.013070 
PRIMCOORD
36 1
Li	     10.50627      4.09804      6.18287        -0.014251     -0.109677     -0.058825
Li	      6.32056      4.08170      2.20292        -0.017920     -0.047197      0.015506
Li	      4.15867      0.06572      4.07575        -0.075748     -0.022419      0.045264
Li	      6.21030      2.09017      4.11933         0.083315     -0.106957     -0.000998
Li	      4.27457      6.00288      2.07877         0.014366      0.094317      0.034465
Li	      2.22787      4.02396      2.04625        -0.040990     -0.013603      0.064955
Li	      2.11667      1.97495      4.01968         0.014236      0.070229     -0.011929
Li	      4.37315      4.02777      3.99858        -0.012499      0.109744     -0.000232
Li	      6.30598      6.15960      8.28912        -0.010006     -0.035081      0.044441
Sc	      6.41328      4.08595      6.08669        -0.043293     -0.023156      0.471213
Mn	      8.41154      8.17578      8.26880         0.575567      0.117207      0.197716
Co	      4.09003      2.11165      2.20023        -0.029887      0.006211     -0.169591
Co	      6.27649      4.10264     10.28332        -0.098862     -0.209086      0.036193
Co	      6.28407      8.14780      6.18847        -0.188246     -0.003748     -0.045791
Cu	      4.28105      1.99901      6.13667         0.043244      0.055825     -0.006091
Cu	      8.39783      6.08019     10.26326        -0.135022      0.027642     -0.151238
Ni	      2.08289      2.01487      0.02746         0.140312      0.015168     -0.185420
Ni	      4.20709      6.12412      6.17173         0.072728      0.159160     -0.118167
O	      8.42357      6.23633      8.25014        -0.052714     -0.089299      0.178264
O	      6.39339      5.93115     10.30415         0.474135      0.521687     -0.016248
O	      2.18916      2.00783      1.98585         0.088229     -0.039626      0.249703
O	      4.25256      3.88309      2.05635         0.014351     -0.208186      0.065448
O	      4.22841      2.02993      4.10224        -0.007197     -0.011558     -0.061711
O	      6.31365      4.07530      4.17020         0.008072      0.021768     -0.249320
O	      6.35218      2.02234      6.19490        -0.045171     -0.044039      0.012926
O	      8.44781      4.09895      6.19826         0.051887     -0.015817     -0.024105
O	      1.85582      4.11775      4.23306         0.139594     -0.126875      0.139551
O	      4.09926      6.24854      4.14464        -0.326374     -0.370242     -0.019657
O	      4.24809      4.05158      6.34694        -0.044326     -0.025710     -0.043234
O	      6.36291      6.24822      6.15725        -0.034757      0.107831     -0.038111
O	      6.15237      4.08225      8.38300        -0.293742      0.104206     -0.621493
O	      2.14998      5.99610      6.08662        -0.078332     -0.071472     -0.157693
O	      4.11581      8.11788      6.02645         0.071045     -0.042125      0.532970
O	      4.23278      6.09892      8.20110        -0.046923      0.123121      0.145418
O	      6.47132      8.17298      8.12010        -0.080961      0.058592     -0.111293
O	      8.53274      8.10974     10.22968        -0.113858      0.023169     -0.142886
