# total energy = -200.81291705 eV
 
CRYSTAL
PRIMVEC
0.047120 6.156076 6.347311 
6.172075 0.033227 6.361200 
4.125719 4.124242 0.011401 
PRIMCOORD
36 1
Li	      4.24962     10.19537      6.38764         0.020012     -0.043094      0.006416
Li	      2.18734      6.09994      8.38168         0.038017     -0.014706      0.052665
Li	      4.17913      8.23822      8.44124         0.061699      0.000979      0.010418
Li	      4.14535      6.17070     10.51052        -0.030350      0.033257     -0.071618
Li	      4.15175      4.08839      4.31647         0.063621     -0.025729     -0.008980
Li	      2.06021      6.17058      4.43771        -0.000641      0.042153      0.020832
Li	      2.15741      4.21826      6.35652        -0.017146     -0.003758     -0.063370
Li	      4.05056      6.18372      6.39445         0.068498      0.053642      0.003800
Li	      4.06901      4.24509      8.37253        -0.006687      0.007400     -0.008330
Sc	      4.12656      6.09642      2.09979        -0.032090      0.049746      0.226430
Mn	      6.14268      6.21281      8.49468        -0.115980      0.291488      0.273023
Co	      6.25257      8.25643     10.55946        -0.230212     -0.017614      0.117727
Co	      2.09574      2.04131      4.23115         0.083240     -0.134384     -0.151773
Co	     10.31834      8.27543     10.62094         0.005250     -0.231422     -0.182062
Cu	      2.18690      8.16652      6.32444        -0.283684      0.137782     -0.090433
Cu	      2.10734      4.08729      2.12527        -0.041223     -0.129895      0.205926
Cu	      4.10408      2.09396      6.34667         0.100272      0.057518     -0.214574
Ni	      6.13979      4.18375      6.31349         0.005579      0.006654     -0.127890
O	      2.09513      6.24079      6.38300        -0.002023     -0.183020      0.038119
O	      4.10928      8.25154      6.11424         0.226048      0.000203      0.007865
O	      4.33326      6.20119      8.44696        -0.042243     -0.029510      0.011489
O	      2.08070      2.10712      2.03323         0.044699     -0.132106      0.052508
O	      4.05118      4.13357      2.16506         0.192889     -0.136684     -0.084311
O	      4.07766      2.06022      4.37697         0.465791     -0.018202      0.116463
O	      6.19317      4.22339      4.25662         0.086657     -0.660180     -0.021566
O	      6.16553      2.11580      6.27021         0.062986     -0.202738     -0.629321
O	      8.17728      4.12251      6.48946         0.210287      0.046546     -0.148070
O	      1.95140      3.96678      4.16834         0.042976      0.301901      0.092323
O	      4.28334      6.30355      4.19374        -0.282597      0.009513     -0.070086
O	      4.17245      4.05382      6.37158        -0.236003     -0.004675      0.081591
O	      6.26063      6.20135      6.51985        -0.093636      0.119157      0.097818
O	      6.22380      4.21964      8.59010        -0.150642      0.034913      0.022826
O	      8.19356      6.13050      8.41377        -0.037521      0.146030     -0.024896
O	      6.22597      8.11578      8.63858         0.066701      0.068971      0.604512
O	      6.22147      6.14007     10.41747         0.069633      0.580017     -0.113190
O	      8.27687      8.24740     10.69702        -0.312175     -0.020152     -0.032282
