# total energy = -200.47649040 eV
 
CRYSTAL
PRIMVEC
-0.011275 6.192223 6.205847 
6.163749 0.001644 6.193205 
4.119111 4.129543 -0.008961 
PRIMCOORD
36 1
Li	      0.05861      6.05115      6.07170        -0.036442      0.079524      0.081958
Li	      2.09935      6.17053      8.20744        -0.090542      0.007108     -0.014887
Li	      4.14360      6.17572     10.32047         0.030424      0.092185     -0.089780
Li	      2.08675      4.07675      2.09691         0.154750      0.008000      0.058042
Li	      2.09231      2.07219      4.16221        -0.019891     -0.038000      0.033791
Li	      0.04771      4.26793      4.27169         0.034697     -0.137101     -0.030611
Li	      6.02947      8.33880      6.19887         0.120358     -0.046320      0.048123
Li	      4.01437      6.33758      6.18848         0.076293     -0.104970     -0.040963
Li	      6.15550      6.18377      8.29835        -0.030795      0.061312      0.000471
Sc	      0.11277      2.01661      2.07965        -0.090211     -0.846326      0.600301
Mn	      4.06234      4.22938      8.27415        -0.354451      0.039806     -0.212193
Co	      4.05868      4.09984      4.17553        -0.045716      0.290422      0.076981
Co	      8.14794      6.15644      6.18620         0.309367     -0.394816     -0.235371
Co	      6.12964      4.14749      6.19407         0.500882      0.677338     -0.561155
Ni	      2.14161      8.26607      6.15680        -0.164053      0.207687      0.018723
Ni	      4.11873      8.21574      8.20843         0.022424      0.198528      0.304479
Ni	      6.16422      8.23807     10.29909        -0.177521     -0.033927     -0.021259
Ni	      2.02692      6.14698      4.17861         0.431295     -0.196342     -0.287085
O	      2.08907      2.06460      2.00960        -0.038018      0.016768      0.068893
O	      4.13498      4.06026      2.29559        -0.024375      0.272020     -0.479638
O	      4.11183      2.17618      4.25863         0.071456     -0.274810     -0.453876
O	      5.96280      4.12685      4.29229         0.116827     -0.152601     -0.042861
O	      6.02048      2.16979      6.16818         0.807648     -0.440291      0.134451
O	      8.05588      4.20954      6.15678         0.802091     -0.731473      0.080365
O	      2.21446      4.14558      4.16561        -0.578286      0.187979     -0.023830
O	      3.99429      6.01756      4.14389        -0.112043      0.387654     -0.045717
O	      4.16625      4.01114      6.19922        -0.852670      0.600923      0.432649
O	      6.33298      6.03304      6.18674        -1.072058      0.316614     -0.014094
O	      6.03616      4.11751      8.16398        -0.012886     -0.024122      0.068738
O	      8.23465      6.30517      8.12337         0.058165      0.142878      0.618231
O	      1.99268      6.31932      6.07508         0.148921     -0.014514      0.167192
O	      4.09105      8.27490      6.23413        -0.030583      0.000633     -0.182632
O	      4.10953      6.10223      8.27863         0.009152     -0.166374      0.024204
O	      6.26388      8.28990      8.25996         0.173813     -0.011556     -0.061439
O	      6.32621      6.22588     10.31249        -0.211844     -0.060519     -0.037715
O	      8.23795      8.22876     10.18913         0.073821      0.086686      0.017514
