# total energy = -203.48520740 eV
 
CRYSTAL
PRIMVEC
-0.024635 6.228252 6.332740 
6.144428 -0.018367 6.325886 
4.088568 4.140145 -0.004710 
PRIMCOORD
36 1
Li	      4.13256      4.10389      0.12330         0.001269     -0.014383     -0.008988
Li	      2.10572      8.20642      6.35183         0.029480     -0.031686     -0.012013
Li	      1.97755      0.10030      2.08581         0.002913      0.071676     -0.016070
Li	      4.06778      2.04985      2.19857        -0.017413     -0.038727     -0.017028
Li	      4.06523      0.08880      4.21203         0.055196     -0.023673     -0.052070
Li	      5.99729      2.14950      4.22509         0.052389     -0.009570     -0.044162
Li	      2.11276      2.03021      4.09830        -0.048555     -0.015179     -0.014910
Li	      4.17400      4.01116      4.13809        -0.011404      0.039107      0.015740
Li	      4.00593      6.28351      6.37255         0.042237      0.007773      0.058925
Sc	      8.13486      8.33025      8.50701         0.070334      0.171557      0.109135
Mn	      6.15309      4.10761      6.23289         0.086274      0.072906     -0.009786
Co	      0.01896      2.07747      2.09069         0.035821     -0.167951     -0.015566
Co	      8.18020      4.11053      8.41451         0.106532     -0.087528     -0.013830
Co	      5.96239      8.38219      6.39536        -0.318704      0.083743     -0.021006
Co	      6.07051      6.24437      8.46646         0.249554     -0.194603     -0.049895
Cu	      4.11179      2.03906      6.23092        -0.205833     -0.010882     -0.049757
Cu	      4.08426      8.27918      4.22888         0.031853     -0.017726      0.015044
Ni	      2.06307      6.19902      4.26510        -0.073542     -0.034310      0.098649
O	      4.17415      8.25101      6.40623         0.400476      0.043290     -0.020162
O	      6.18529      6.02953     10.35347        -0.354555      0.271380     -0.109921
O	      1.92253      2.20572      2.06117        -0.117762      0.073605      0.002033
O	      3.94740      4.29939      2.14539        -0.057530      0.161956     -0.057244
O	      4.08611      2.04897      4.30595         0.002124      0.002708     -0.026009
O	      6.16366      4.12774      4.41902        -0.029719      0.018454      0.036243
O	      6.09468      2.14343      6.42840         0.158496      0.116909      0.049180
O	      8.10827      4.19049      6.45578        -0.108228     -0.157802      0.065256
O	      1.88448      4.15348      4.06822         0.087112     -0.084657     -0.093237
O	      4.05809      6.37539      3.98707         0.291073     -0.081104      0.010259
O	      4.13818      4.05692      6.33765         0.041838      0.184589      0.027795
O	      6.19050      6.12829      6.49981        -0.229427      0.052691      0.128050
O	      6.21126      4.03111      8.21809         0.009008      0.212902     -0.122896
O	      8.16183      6.10770      8.42843        -0.054398     -0.036473     -0.132550
O	      2.06279      6.12653      6.26777        -0.025854     -0.210201      0.261589
O	      4.18092      6.19728      8.45399         0.152802      0.010289      0.007447
O	      6.13672      8.31900      8.41912        -0.096492     -0.537787      0.032027
O	      8.34179      8.22540     10.56264        -0.157366      0.158707     -0.030274
