# total energy = -99.05802124 eV
 
CRYSTAL
PRIMVEC
-0.000137 2.085889 2.085851 
17.176394 -0.000230 -0.000285 
0.000007 2.085922 -2.085884 
PRIMCOORD
16 1
Li	      0.03228      2.08788     -2.08090         0.039122     -0.000159      0.000525
Li	      1.68865      2.08711      0.00475        -0.046756     -0.001103     -0.002414
Li	     11.19738      2.08540      0.00339         0.050777      0.000872     -0.000686
Li	     12.85437      2.08651     -2.08191        -0.034832      0.000404      0.000144
Ti	      6.44230      2.08612      0.00248        -0.003271     -0.000347     -0.000784
Ti	     15.03168      2.08870      0.00486         0.003227     -0.001905     -0.001601
Ni	      3.95219      2.08640     -2.08222         0.146443     -0.000273     -0.000376
Ni	      8.93357      2.08543     -2.08302        -0.147778      0.000278      0.000226
O	     13.16042      2.08660      0.00424         0.238978      0.000137      0.001065
O	     15.03213      2.08793     -2.08127        -0.000537      0.000612      0.003424
O	      8.38885      2.08562      0.00295        -0.195117      0.000147     -0.000251
O	     10.79747      2.08529     -2.08236         0.272175      0.001035     -0.000548
O	      4.49562      2.08619      0.00338         0.196625     -0.000329     -0.000171
O	      6.44179      2.08610     -2.08329         0.002999     -0.000750      0.002364
O	     16.90329      2.08716      0.00467        -0.244997      0.001057      0.001413
O	      2.08855      2.08688     -2.08113        -0.277057      0.000323     -0.002333
