# total energy = -203.64691139 eV
 
CRYSTAL
PRIMVEC
0.008394 6.214724 6.334293 
5.997225 0.025565 6.316678 
4.021446 4.154139 -0.005585 
PRIMCOORD
36 1
Li	      0.07086      6.16880      6.29540        -0.132540     -0.016311     -0.170330
Li	      2.04047      8.10643      6.32921        -0.021470     -0.052409     -0.037645
Li	      1.99881      6.24066      8.36253         0.111935     -0.058792     -0.031916
Li	      6.00908      2.10755      4.21176        -0.072091      0.033388     -0.010494
Li	      6.02014      6.21090      4.28892         0.135451     -0.006782      0.175713
Li	      5.99181      4.17987      6.24958         0.054491      0.102183     -0.085813
Li	      3.98798      8.29510      4.35519        -0.011575      0.053023      0.096350
Li	      4.00532      6.29927      6.31375         0.123010     -0.124416      0.075977
Li	      5.93248      6.31777      8.42730         0.018498      0.033402     -0.045759
Sc	      7.95320      4.11488      8.41240        -0.148711      0.298769     -0.442260
Mn	      7.97403      8.36911      8.47339        -0.264076     -0.024973     -0.126837
Co	      8.04596      4.16437      4.24106        -0.222264      0.146174      0.463085
Co	      0.01305      2.04256      2.08489         0.023149      0.233354     -0.859372
Co	      4.13266      4.18012      4.17945        -0.227687     -0.292421     -0.027132
Co	      4.02167      2.12190      6.32450        -0.778324      0.648664     -0.033472
Ni	      4.05907      8.24589      8.35497        -0.004110     -0.195806      0.340018
Ni	      1.97428      6.22747      4.29209        -0.159508      0.013877     -0.045300
Ni	      1.99286      4.16538      6.31082         0.334409     -0.380938     -0.063862
O	      1.97508      2.09277      2.00130        -0.080084     -0.104693      0.056112
O	      4.02340      4.21099      2.12678         0.303620     -0.107036      0.820208
O	      4.04849      2.18429      4.38132        -0.006469      0.441770     -0.346148
O	      6.04334      4.19013      4.26652         0.077552     -0.006094     -0.133224
O	      5.86657      2.12978      6.48740         0.762042     -0.286793      0.799776
O	      7.96325      4.41510      6.29357         0.182662     -0.729595      0.209846
O	      2.16377      4.19804      4.18124         0.094979     -0.162450     -0.223319
O	      4.02352      6.11226      4.01454         0.150053     -0.200176     -0.084722
O	      3.95551      4.06999      6.43904         0.175437      0.399325     -0.372893
O	      6.15039      6.40827      6.33751        -0.265658     -0.065366     -0.005880
O	      5.89290      4.03472      8.44328         0.005295     -0.043787      0.178851
O	      8.07428      6.33808      8.34489        -0.004247     -0.051819      0.039182
O	      2.03557      6.05347      6.24643        -0.028079      0.329443      0.224892
O	      4.11558      8.25785      6.39571        -0.312682      0.027840     -0.159569
O	      3.99853      6.10531      8.50643         0.012172      0.102356     -0.049818
O	      6.08164      8.31141      8.40588         0.189953      0.012382      0.152342
O	      5.86791      6.22301     10.54988        -0.043792     -0.046616     -0.080310
O	      7.98693      8.29273     10.39176         0.028658      0.081323     -0.196277
