# total energy = -206.85481423 eV
 
CRYSTAL
PRIMVEC
-0.006453 6.230271 6.300427 
6.023284 -0.015615 6.310652 
4.036194 4.181030 -0.031692 
PRIMCOORD
36 1
Li	      6.01861      0.17952      6.32125        -0.000356     -0.050911     -0.064842
Li	      6.04533      2.11110      4.38274         0.029180     -0.172005     -0.107741
Li	      6.02054      2.07750      8.23531        -0.062131      0.010398      0.106028
Li	      7.95857      4.20967      8.45352        -0.007169      0.010322      0.090896
Li	      3.99046      4.23792      4.18840        -0.047206      0.104674     -0.032085
Li	      4.17210      2.07383      6.31451        -0.094854      0.019496     -0.033058
Li	      6.02566      4.04725      6.34241        -0.040185      0.094989      0.052054
Li	      4.03151      8.28332      4.12338        -0.028058      0.011824     -0.033446
Li	      6.11886      6.11354      8.32730         0.021632      0.009438      0.060910
Sc	      4.06488      2.17698      2.10054         0.026849      0.029274      0.030281
Mn	      8.10290     10.36742     10.51502         0.594410     -0.222734     -0.248173
Co	      6.04567      4.18266      2.09669         0.008101     -0.065176      0.209696
Co	      5.98376      6.25299      4.23562        -0.256038      0.029728     -0.388855
Co	      7.94825      6.16392     10.37559         0.332649     -0.027138     -0.231000
Co	      4.00370      6.20408      6.31244        -0.081620      0.020507     -0.199664
Co	      4.09126      4.15093      8.36714         0.114309     -0.118895      0.154348
Cu	      7.98140      2.08151      6.27792         0.162022     -0.037000      0.066609
Ni	      1.98409      4.14481      6.23324        -0.022540     -0.041177     -0.015081
O	      5.88240      4.15695      8.37398        -0.105105     -0.027762     -0.055409
O	      1.98353      1.96750      2.33064         0.015628     -0.122302     -0.103427
O	      4.11329      4.14834      2.12482         0.177372     -0.010294     -0.029189
O	      3.99470      1.88139      4.21242         0.031516     -0.017210      0.006722
O	      6.17041      4.17262      4.04540        -0.099840      0.075199     -0.159332
O	      6.10700      2.09347      6.29419        -0.056648      0.009662     -0.036771
O	      8.08123      4.05195      6.05548        -0.051919     -0.005695     -0.002791
O	      1.98788      4.19176      4.19753         0.058371      0.367413     -0.050778
O	      3.87730      6.22171      4.41900         0.043646     -0.047096      0.046607
O	      3.99064      4.26909      6.44845         0.137739      0.005745      0.069282
O	      5.90332      6.25607      6.12029         0.002901      0.019918      0.193813
O	      8.05332      6.42929      8.45084         0.000113     -0.120258      0.445540
O	      2.07002      6.25526      6.45379         0.001188      0.130208      0.024421
O	      3.94969      8.13710      6.33106        -0.115856     -0.013931      0.036668
O	      3.99103      6.15919      8.38744        -0.144125     -0.009825      0.061810
O	      6.14222      8.46352      8.29741         0.079581      0.166218      0.078855
O	      6.06455      6.22652     10.47639        -0.590802      0.160374      0.138158
O	      8.04576      8.39940     10.24312        -0.032755     -0.165980     -0.081056
