# total energy = -207.09128514 eV
 
CRYSTAL
PRIMVEC
-0.026286 6.030700 6.284203 
6.270678 -0.038746 6.296356 
4.171162 4.019353 -0.016389 
PRIMCOORD
36 1
Li	      6.22129      6.05437     12.47842        -0.061613      0.004381     -0.026075
Li	      8.30970      7.94727     12.52282        -0.043437      0.089824     -0.010104
Li	     10.35870      5.98656      8.38687        -0.012710      0.023679     -0.019781
Li	      6.14479      6.08199      4.17446        -0.013283      0.047397     -0.037134
Li	      8.41917      5.97321      6.36632         0.067834     -0.018075      0.023410
Li	      6.29127      3.95078     10.39354        -0.044059     -0.003135     -0.027785
Li	      8.36002      5.98871     10.45115         0.029042     -0.015429     -0.111605
Li	      8.32572      7.88546      8.48823        -0.014559     -0.060455     -0.022877
Li	      6.33013      6.00337      8.41050         0.130992     -0.086869      0.012205
Sc	      6.25955      3.98522      6.35875         0.112935     -0.195385      0.371873
Mn	      4.20491      5.99807     10.49475         0.383857     -0.148537      0.278338
Co	      2.06524      0.06878      2.05534         0.465271     -0.763520      0.232428
Co	      6.25918      8.02469     10.47776        -0.026912     -0.205073      0.062303
Co	      8.32914      4.01724      8.42408        -0.372593     -0.085891     -0.318210
Co	      4.08243      4.04611      4.20778        -0.361445     -0.039891     -0.107507
Co	      4.14566      6.01661      6.28019         0.138373     -0.050275     -0.176996
Cu	      4.16790      8.04661      8.35634        -0.178675      0.233169      0.036719
Cu	      6.21325      7.99862      6.24039         0.025227     -0.003201     -0.103548
O	      8.36081      5.83717      8.36086        -0.099996     -0.088819      0.010893
O	      4.22267      7.93160      6.36355        -0.010394     -0.096964     -0.046988
O	      2.17240      2.06235      2.06467         0.148551     -0.429875     -0.116453
O	      4.13306      4.01135      2.25938         1.071208      0.052892      0.129590
O	      4.32366      2.01413      4.14131         0.007277      0.097716     -0.007742
O	      6.37609      3.96029      4.16317        -0.538751      0.178327     -0.953813
O	      6.26836      1.96938      6.13329         0.035463      0.187339     -0.087357
O	      8.34085      4.01092      6.14009        -0.108233     -0.022404     -0.043337
O	      2.12187      3.98882      4.03617         1.149438      0.234190      0.360309
O	      4.16711      5.91397      4.36844        -0.315949     -0.286058      0.134715
O	      4.09423      4.05000      6.15627         0.099623      0.173141     -0.104421
O	      6.09361      6.07307      6.27487        -0.202700     -0.162949      0.084669
O	      6.36188      3.92477      8.37770        -0.077538      0.156770     -0.202114
O	      2.20223      5.93453      6.34655        -0.151999      0.257460      1.214607
O	      4.09862      6.07737      8.39977        -1.124408     -0.251127     -0.342205
O	      6.17794      8.11717      8.55298         0.165154      1.042077     -0.004732
O	      6.09868      6.08831     10.45546        -0.205660      0.115689     -0.068872
O	      8.22291      8.11948     10.44212        -0.065331      0.119881     -0.012402
