# total energy = -209.79576093 eV
 
CRYSTAL
PRIMVEC
-0.045804 6.103628 6.068333 
6.463461 -0.036432 6.058006 
4.289795 4.044109 -0.006006 
PRIMCOORD
36 1
Li	      6.42552      0.08612      6.06250         0.118403     -0.071504      0.033725
Li	      8.50865      2.01215      6.04704        -0.000368     -0.086462      0.033393
Li	      6.42586      1.98601      4.11580        -0.115326      0.120940     -0.103043
Li	      0.03624      2.00964      2.01412         0.069043      0.110273      0.000350
Li	      6.38430      6.04352      3.99050         0.014162     -0.079321     -0.050600
Li	      4.30854      4.16532      4.04553         0.132477     -0.036543     -0.009171
Li	      4.37628      1.96820      6.00989         0.019415      0.038560     -0.093102
Li	      2.18447      6.11992      4.06642         0.036095      0.052644      0.010286
Li	      4.26297      6.06518      5.99690        -0.104187      0.099022      0.085666
Sc	      2.12647      4.00617      5.96892        -0.151327      0.087959      0.331643
Mn	      8.55393      8.02193      8.07562        -0.107433     -0.066974     -0.067848
Co	      2.05135      0.13530      2.01959         0.149056      0.009152      0.310336
Co	      4.21577      2.09957      2.03871         0.054680     -0.523778      0.183820
Co	      4.31132      6.04706     10.11182        -0.327043      0.473486     -0.392261
Co	      6.46467      3.99935      6.02000         0.036029      0.167981     -0.207749
Co	      4.22015      8.06220      4.09026         0.050640      0.039896      0.099259
Co	      6.39495      6.01962      8.10486        -0.105637     -0.066086     -0.035761
Cu	      8.63073      4.05699      8.03628         0.147340     -0.171449     -0.025442
O	      6.42499      2.20167      6.05191         0.003674     -0.306785      0.070239
O	      2.23459      2.08629      2.00104         0.171345     -0.003112     -0.009527
O	      4.40618      4.04445      2.08946         0.251275     -0.208396     -0.113646
O	      4.37251      1.86012      3.86804         0.102135      0.105874      0.007844
O	      6.69462      4.02313      3.90576        -0.030734     -0.078423      0.025613
O	      8.50314      4.03680      6.00042        -0.109525      0.065013      0.064427
O	      1.97872      4.06527      3.95155        -0.109501      0.147851     -0.047232
O	      4.24238      6.26530      4.03355        -0.032354     -0.400649     -0.000315
O	      4.25063      4.02744      6.14565         0.061087     -0.031428      0.039110
O	      6.41558      5.91653      6.14888        -0.022881      0.123364      0.094900
O	      6.20665      4.09684      8.04205        -0.060693     -0.046935      0.117691
O	      8.32143      6.08775      8.12067         0.136024     -0.151844     -0.031308
O	      2.13914      6.05830      6.25473        -0.198587      0.072553     -0.128787
O	      4.36065      8.09487      6.22481        -0.111931      0.213007     -0.114553
O	      4.41431      5.97330      8.17692        -0.021974      0.274748      0.100130
O	      6.58456      7.96485      8.11673        -0.014404     -0.092225     -0.013788
O	      6.26605      5.89922     10.06437         0.045515      0.252992     -0.087500
O	      8.69274      8.12373     10.02707         0.025512     -0.033401     -0.076796
