# total energy = -209.42858176 eV
 
CRYSTAL
PRIMVEC
0.047572 6.080609 6.172148 
6.248244 0.029761 6.190584 
4.175741 4.077160 0.008094 
PRIMCOORD
36 1
Li	      8.34116      2.11123      6.21805         0.006083     -0.004275      0.009494
Li	      4.18200      2.03796      2.12050         0.061357     -0.032045      0.040816
Li	      6.14853      2.08193      4.10377         0.031698     -0.007679     -0.110298
Li	      2.10949      4.01576      2.19622         0.042747     -0.031609      0.123293
Li	      2.15031      2.10132      4.08452        -0.019246      0.059328     -0.096214
Li	      4.09482      4.00151      4.09519        -0.052500     -0.031528     -0.049619
Li	      4.19798      2.02819      6.14418         0.062698     -0.021266     -0.027260
Li	      4.22866      8.12116      4.21486         0.013917      0.000297     -0.041094
Li	      4.19106      4.09672      8.22458        -0.060353     -0.029030      0.093468
Sc	      8.34659      6.20990     10.31804         0.054980     -0.130656     -0.041382
Mn	      6.23643      4.06177      6.12051         0.144332     -0.161872     -0.130678
Co	     10.33568      4.06697      6.23949        -0.064687      0.071029      0.051657
Co	      6.32175     10.15253      8.26270         0.054047     -0.108454      0.045010
Co	      8.30955      4.10798      4.12151        -0.066998     -0.146291     -0.214778
Co	      0.07938      2.03076      2.08609        -0.184532     -0.101605      0.003147
Co	      4.23037      6.13999      6.16313        -0.113066      0.148723      0.127838
Co	      6.32054      6.13679      8.27447        -0.003193      0.202077     -0.026484
Ni	      2.13862      4.04452      6.14959         0.247462     -0.103534     -0.007802
O	      1.97024      1.91132      2.07698        -0.549148     -0.027055      0.022998
O	      4.33725      4.09513      2.02144         0.062410      0.383611     -0.084629
O	      4.15640      1.85591      4.11383        -0.029507      0.031362     -0.055653
O	      6.39967      4.06462      4.11031        -0.038901      0.056793      0.064034
O	      6.21823      2.11287      6.25264         0.100883     -0.085089      0.291680
O	      8.21693      4.08846      6.00196         0.151904      0.020394      0.152453
O	      2.10562      4.10681      4.23106         0.050505      0.142103     -0.719705
O	      4.16241      6.12644      4.18757         0.118988      0.067830     -0.835449
O	      4.29483      4.20664      6.12517         0.146635      0.046609      0.092961
O	      6.14057      6.05259      6.20735         0.248727     -0.268253      0.162845
O	      6.32658      4.09511      8.02339         0.000528     -0.196130      0.148861
O	      8.45193      6.08951      8.29975         0.306772      0.078864     -0.256087
O	      2.26702      6.08297      6.31040        -0.156745      0.384411      0.008173
O	      4.31642      8.07721      6.21615        -0.662667     -0.210522      0.097180
O	      4.12332      6.09761      8.27887        -0.020349      0.055432      0.458335
O	      6.33515      8.17314      8.08533         0.036151     -0.085792      0.793077
O	      6.15015      6.12126     10.34853         0.041575     -0.040139     -0.093689
O	      8.36935      8.27114     10.29841         0.037496      0.073961      0.003503
