# total energy = -212.47884864 eV
 
CRYSTAL
PRIMVEC
0.057752 6.156306 6.228444 
6.266394 0.030526 6.253904 
4.194387 4.137421 0.004345 
PRIMCOORD
36 1
Li	      0.07308      6.10897      6.18008        -0.038178      0.025870      0.069417
Li	      4.14945      2.12804      2.14564        -0.011869      0.067577      0.000056
Li	      6.20067      2.02906      4.17290        -0.042384     -0.007367      0.011135
Li	      4.23025      6.15687      2.21006         0.019097     -0.061329      0.044145
Li	      4.15493      4.06404      4.13194        -0.040103      0.007474     -0.079779
Li	      4.24289      2.11360      6.20917        -0.042412     -0.009408      0.022718
Li	      0.04507      4.12593      4.17750         0.030271      0.006324     -0.077651
Li	      8.31607      6.17246     10.41094         0.024953     -0.025874     -0.081634
Li	      6.20110      8.29616      6.17947        -0.032448     -0.040216     -0.005833
Sc	      4.16159      6.21433      6.15079         0.264961     -0.035594     -0.016374
Mn	      6.36912      4.12381      6.21391        -0.086481      0.262049      0.409066
Co	      8.41313      8.25201     12.42060         0.089719      0.165006     -0.040332
Co	      6.14767      4.13457      2.09222        -0.261774      0.015193      0.063427
Co	      4.23241      6.18795     10.37697         0.398636     -0.072853     -0.277386
Co	      2.29390      4.12250      2.22494        -1.029049      0.049828      0.117521
Co	      2.13485      2.06421      4.17155        -0.030106      0.134959      0.127790
Co	      8.42888      8.20989      8.39511         0.239478     -0.084842     -0.152119
Co	      6.38619      6.32233      8.40084        -0.107891     -0.808504     -0.234838
O	      2.08887      2.07683      2.22103         0.139555      0.472835      0.032981
O	      4.10077      4.14232      2.06009         0.447191     -0.079307      0.011028
O	      4.07009      1.94743      4.17691        -0.062590     -0.104131      0.024536
O	      6.38295      4.21946      4.25226        -0.000052     -0.005847     -0.058190
O	      6.47251      2.23417      6.24142         0.068194      0.041596     -0.001476
O	      8.30924      4.06493      6.10890         0.048458     -0.135099      0.140289
O	      2.12373      3.98630      4.14562         0.203094     -0.082224     -0.639226
O	      4.35513      6.15953      4.19174         0.062031      0.019022      0.097392
O	      4.44027      4.09264      6.39521         0.016328      0.032383      0.118950
O	      6.32814      6.10050      6.17315        -0.020446     -0.082082     -0.092915
O	      6.48333      4.30484      8.16669         0.348410      0.410934      0.169853
O	      8.40056      6.24847      8.37718        -0.068623     -0.236507     -0.062062
O	      2.10222      6.26633      6.22283        -0.108437      0.021431      0.149728
O	      4.03587      8.23944      6.24888        -0.127153     -0.063204     -0.067373
O	      4.19538      6.05805      8.41491        -0.055944      0.013480      0.058807
O	      6.32965      8.19130      8.23767         0.130995     -0.013892      0.105229
O	      6.14573      6.21309     10.29907        -0.258493      0.107259      0.034011
O	      8.42431      8.36496     10.30621        -0.106937      0.095063      0.079107
