# total energy = -192.20783306 eV
 
CRYSTAL
PRIMVEC
-0.007172 6.204788 6.304557 
6.138535 0.009051 6.287818 
4.099373 4.132499 -0.000774 
PRIMCOORD
36 1
Li	      8.11007      4.25428      4.25913        -0.022240      0.019733      0.031285
Li	      6.11292      2.07830      4.21603        -0.010922      0.036586      0.004668
Li	      6.09173      2.08114      8.31444         0.004450     -0.004898     -0.044489
Li	      8.22530      4.16433      8.34429         0.020729      0.003615     -0.001716
Li	      6.23736      6.10703      4.23773        -0.001275     -0.044619     -0.010057
Li	      4.07613      4.12469      4.19534         0.040286     -0.020240     -0.021853
Li	      6.11689      4.20002      6.33681         0.020245      0.031478     -0.001653
Li	      6.21135      8.20117      6.30846        -0.012799     -0.006667     -0.000560
Li	      6.16682      6.19776      8.26350        -0.030802     -0.040841     -0.089666
Sc	      0.04508      4.12198      4.15518         0.121419      0.032035     -0.132621
Mn	      6.13865      4.15208      2.17540         0.008537      0.029222      0.198860
Cu	      8.19274      6.19485     10.45659        -0.093814     -0.126060     -0.118780
Ni	      0.01340      0.00619      0.01922        -0.009766     -0.068551      0.027921
Ni	      8.11506      2.12878      6.33804        -0.050582      0.097077     -0.010397
Ni	      4.11901      2.06055      2.18074         0.058711     -0.036150      0.120050
Ni	      4.05452      2.08383      6.23148        -0.012912     -0.014540     -0.112799
Ni	      4.12327      6.14903      6.30753         0.030719      0.040954      0.057170
Ni	      8.16612      8.24543      8.37600        -0.086557      0.135528      0.037549
O	      8.13599      6.30164      8.18478        -0.017619     -0.213945      0.210696
O	      2.08141      1.96670      2.09759        -0.081332     -0.037756      0.122073
O	      4.23192      4.06600      2.03359         0.037079      0.133035      0.107917
O	      4.10271      2.08460      4.23584         0.010647      0.020134     -0.028952
O	      6.15300      4.14129      4.01467        -0.005179     -0.026464     -0.087318
O	      6.10786      1.94077      6.29190         0.024974      0.098193     -0.005629
O	      8.27756      4.15100      6.27009        -0.146603     -0.001575     -0.004078
O	      2.07177      4.32007      4.14102        -0.018664     -0.026565      0.007309
O	      3.94538      6.17364      4.32825         0.024169      0.009821     -0.131512
O	      4.10560      4.11432      6.42733        -0.022169     -0.023363     -0.145592
O	      6.12549      6.21807      6.22497        -0.038830      0.022446     -0.011220
O	      5.98136      4.13472      8.42397         0.195033     -0.014011      0.054112
O	      2.04163      6.29780      6.49961         0.072217     -0.114474     -0.006015
O	      4.02008      8.31845      6.35808         0.084826      0.012420     -0.090443
O	      4.00668      6.18737      8.34214        -0.016002      0.036607      0.130566
O	      6.19673      8.41907      8.39099        -0.080027      0.004749      0.008245
O	      6.29960      6.20212     10.59292         0.009457      0.002456     -0.086271
O	      8.16178      8.10597     10.44891        -0.005406      0.054630      0.023201
