# total energy = -192.55695384 eV
 
CRYSTAL
PRIMVEC
-0.029364 6.211807 6.275286 
6.260449 -0.035124 6.281294 
4.155417 4.127139 -0.005418 
PRIMCOORD
36 1
Li	      4.16387     10.21948      6.24978         0.063333     -0.051472     -0.074504
Li	      2.15774      8.22743      6.26421         0.183170     -0.170822      0.000874
Li	     10.32160      6.23403      8.41805         0.036389     -0.010444      0.003098
Li	      6.15979      6.23371      4.19015        -0.026414      0.051468     -0.066436
Li	     10.31651      8.24204     10.45437         0.021905      0.009956      0.075592
Li	      2.18711      6.15917      4.18458        -0.044727      0.037019      0.107369
Li	      4.11643      6.25575      6.17789        -0.162053      0.135566      0.037876
Li	      4.31260      4.04071      8.42672        -0.002715      0.048781      0.085076
Li	      6.31071      6.04029      8.37032        -0.029515      0.025726      0.104397
Sc	      6.29470      8.16051     10.46567         0.225055     -0.297638     -0.155406
Mn	      2.06889      0.05842      2.05205         0.254655      0.012465     -0.555953
Cu	      4.11592      4.20472      4.16661         0.064439     -0.024493     -0.086448
Cu	      8.27909      6.19943      6.34224         0.186338     -0.077609     -0.041836
Cu	      6.20451      4.16948      6.34258        -0.139249      0.036414      0.150471
Cu	      8.30540     10.28101     10.44877         0.100723     -0.165714     -0.002934
Ni	      4.12994      8.25757      8.34058         0.007079     -0.071469     -0.288270
Ni	      8.28985      4.12189      8.41418        -0.028622     -0.126413      0.017026
Ni	      6.18974      8.26331      6.25651        -0.074469      0.105011     -0.075616
O	      6.30154      4.08491      8.29113        -0.070466     -0.044262      0.025616
O	      8.31155      6.12753      8.30335         0.005057      0.099970      0.103566
O	      4.21285      8.23670      6.45247        -0.195913     -0.055187     -0.103618
O	      2.20669      1.98660      2.02671        -0.195075     -0.043483      0.041857
O	      4.23800      4.13665      2.16325         0.079413      0.110932      0.158093
O	      4.16259      2.03228      4.03160        -0.066955      0.148448      0.305612
O	      6.23713      4.13145      4.05633        -0.063093      0.072879      0.162801
O	      6.10934      2.19798      6.24633        -0.504455     -0.021371      0.150492
O	      8.19313      4.21527      6.22759         0.267537      0.377053     -0.196529
O	      2.16707      4.13742      4.18794        -0.062932     -0.040720      0.018549
O	      4.15163      6.12173      4.19912         0.039837      0.054108      0.038687
O	      4.16785      4.05919      6.17477        -0.044238     -0.382181     -0.311028
O	      6.32385      6.16658      6.29369         0.425917     -0.080305     -0.019960
O	      2.04209      6.15366      6.44929         0.009170      0.234105      0.210826
O	      3.97426      6.19303      8.46271        -0.196424     -0.066637      0.014789
O	      6.11706      8.41729      8.34839         0.113085     -0.007288      0.172052
O	      6.12622      6.15078     10.48367         0.067028      0.198999     -0.038554
O	      8.31959      8.29228     10.49436        -0.242816     -0.021394      0.032375
