# total energy = -192.75734432 eV
 
CRYSTAL
PRIMVEC
-0.011695 6.192130 6.266858 
6.141819 -0.028244 6.283561 
4.099198 4.143642 -0.023615 
PRIMCOORD
36 1
Li	      0.04415      6.13046      6.26038         0.041584     -0.022175      0.010393
Li	      2.05035      8.25532      6.24063        -0.026110     -0.009594      0.059359
Li	      1.99977      0.06693      2.08915         0.039458      0.070028     -0.115991
Li	      8.20885     10.24849     10.40927         0.016590     -0.072400     -0.063219
Li	      2.06106      4.10891      2.11836         0.021944     -0.049762      0.019520
Li	      2.04524      2.09846      4.05555        -0.035335      0.083633     -0.150059
Li	      6.11684      4.15088     10.42121         0.016994      0.051715     -0.055561
Li	      8.13613      6.18195     10.45682        -0.013846      0.011508      0.002509
Li	      8.22006      8.20382      8.47194        -0.032999     -0.008954      0.065047
Sc	      3.97777      6.25372      6.20637        -0.121100      0.015275      0.287473
Mn	      6.19305      4.10364      6.27188        -0.122484      0.028817      0.270018
Cu	      4.03541      2.08822      2.08886        -0.226549      0.005234     -0.122013
Cu	      6.20264      8.21877     10.42967        -0.113501     -0.072849     -0.056808
Cu	      4.05696      4.13644      4.12832        -0.030890      0.156671      0.146778
Cu	      8.19501      6.16212      6.26801         0.116594      0.040052     -0.015787
Cu	      6.16155      6.15988      8.42897         0.035027     -0.177198     -0.106912
Ni	      4.13196      6.19308      2.13787        -0.023137      0.058704     -0.411376
Ni	      2.01087      4.17261      6.21209         0.049371     -0.163806      0.406475
O	      8.18634      6.20249      8.26330        -0.026663     -0.118876     -0.127047
O	      4.17329      6.28315      8.34380        -0.219203     -0.319188     -0.107759
O	      6.02276      8.14725      8.38787         0.406965      0.404831     -0.544760
O	      6.13658      6.26966     10.36168         0.020966      0.155187      0.178433
O	      8.07648      8.24726     10.42895        -0.023653      0.017263      0.129231
O	      2.08379      2.04889      2.08464        -0.099124      0.075687      0.009805
O	      4.10615      4.10338      2.18162        -0.053121      0.099585     -0.058803
O	      4.19679      2.13426      4.16468         0.244818     -0.147957      0.111529
O	      6.09055      4.03372      4.33280         0.037414     -0.129139     -0.071518
O	      6.07844      2.17631      6.27374         0.169500     -0.105244      0.480368
O	      8.04894      4.21077      6.21835         0.226677     -0.165527     -0.046595
O	      2.12365      4.08976      4.25988        -0.102605     -0.004966     -0.091427
O	      4.10945      6.12926      4.13421         0.024237      0.052691      0.043505
O	      4.16637      4.06821      6.21981        -0.002729      0.073843      0.037226
O	      6.19449      6.07337      6.31189        -0.058607     -0.006252     -0.026540
O	      6.12989      4.12410      8.19812         0.023015     -0.056129      0.042607
O	      2.03642      6.13464      6.31659        -0.031822      0.156372     -0.051615
O	      4.11664      8.27387      6.30028        -0.127677      0.072922     -0.076486
