# total energy = -193.48242653 eV
 
CRYSTAL
PRIMVEC
0.029673 6.321437 6.174514 
6.175136 0.027967 6.176518 
4.139947 4.238813 -0.004741 
PRIMCOORD
36 1
Li	      4.19380     10.50631      6.21666        -0.045026      0.013007     -0.055416
Li	      4.06688      0.10149      4.09510         0.016832      0.036546      0.009684
Li	      4.12434      6.32927      2.06601        -0.041976      0.041596      0.019634
Li	      6.21561      6.27889      4.18302        -0.012381     -0.005987      0.002805
Li	      4.15815      4.25651      4.16705        -0.021689     -0.012994      0.004082
Li	      8.19151      6.44960      6.20382         0.032786      0.021322      0.018477
Li	      2.16946      4.20347      6.15041         0.116721     -0.041004     -0.033153
Li	      4.17481      6.25989      6.13860         0.023123     -0.043499     -0.042337
Li	      4.18869      4.23205      8.08895         0.018352     -0.063448     -0.005261
Sc	      6.16162      2.16442      4.13477        -0.023316     -0.065134      0.094832
Mn	      4.15008      8.44213      8.19529        -0.004056      0.034729     -0.059553
Cu	      8.24731      2.17118      6.18976        -0.098093      0.066508     -0.120957
Cu	      2.08633      6.34457      8.19635        -0.030336     -0.023462     -0.075409
Cu	      8.26747      4.28641      8.24982         0.123560      0.037398     -0.003248
Cu	      4.17550      8.43174      4.16504         0.011180     -0.054820      0.043112
Cu	      2.13210      6.30611      4.16186         0.086399      0.015195      0.028263
Cu	      6.18607      6.30178      8.20570        -0.062999      0.038486     -0.051073
Ni	      6.16425      4.25996      6.14131        -0.016181     -0.038850      0.045909
O	      8.20265      6.27312      8.32179         0.141483      0.072238     -0.084143
O	      2.06333      6.45241      6.23643         0.004391     -0.089347      0.149931
O	      4.08761      8.48764      6.20706         0.190894      0.002752      0.156815
O	      4.11307      6.50437      8.20970        -0.159644     -0.037315     -0.036178
O	      6.25973      6.32287     10.27725        -0.141885      0.085999      0.075417
O	      8.33605      8.37705     10.35610        -0.113535      0.144567     -0.136941
O	      2.19462      2.25770      1.99698        -0.066345     -0.203114      0.226353
O	      4.15074      4.07636      2.02877         0.218637      0.028769     -0.007327
O	      4.13603      2.11621      3.92717        -0.002202     -0.011646      0.037146
O	      6.21896      4.20674      3.97471         0.003339      0.014352      0.002307
O	      6.22613      2.30557      6.19819        -0.105159     -0.138207     -0.017553
O	      8.09786      4.20477      6.23839         0.145155      0.060287     -0.078476
O	      2.02044      4.31320      4.10438         0.116484     -0.109693      0.090172
O	      4.08380      6.45611      4.09069         0.130930     -0.110601      0.040836
O	      4.29893      4.20588      6.16889        -0.280784      0.008362     -0.038873
O	      6.21714      6.14889      6.24364        -0.023775      0.200582     -0.076719
O	      6.25063      4.33214      8.36053        -0.184794     -0.112624     -0.073261
O	      6.08873      8.31253      8.16412         0.053911      0.239050     -0.049900
