# total energy = -201.73649882 eV
 
CRYSTAL
PRIMVEC
-0.012698 6.193008 6.291076 
6.193392 -0.005889 6.284078 
4.155257 4.150599 -0.030389 
PRIMCOORD
36 1
Li	      2.08000      2.06995      0.00064         0.000293     -0.011571     -0.008682
Li	      4.06113      2.09744      2.10163         0.018384      0.018899      0.013469
Li	      6.20197      8.22230     10.47116         0.041420     -0.040784     -0.034302
Li	      6.18439      2.07566      8.37254         0.002682      0.017975      0.010365
Li	      2.09445      4.09368      2.08387        -0.005375     -0.047061      0.027008
Li	      6.19126      4.17572      6.30107        -0.002371      0.057230     -0.001300
Li	      8.26077      6.22941     10.42141         0.011725     -0.074174      0.002901
Li	      4.15687      6.19206      6.24049         0.032094      0.009354     -0.055036
Li	      6.22636      6.15048      8.40324         0.009298      0.023340      0.027911
Sc	      6.20039      8.25618      6.26226        -0.075509      0.006293      0.027377
Mn	      8.31566      8.24075      8.41137        -0.201231     -0.043818      0.061546
Fe	      2.03382      0.08724      2.09449         0.010123     -0.181769     -0.161397
Co	      6.19122      0.03759      6.26482         0.073811     -0.000942     -0.099252
Cu	      4.14780      0.01216      4.20346         0.064131     -0.170891     -0.090273
Cu	      2.05218      2.05668      4.17020        -0.121532      0.116502      0.010018
Cu	      4.12682      4.17330      4.12961        -0.069832      0.289862     -0.058221
Cu	      8.30719      6.20527      6.28861        -0.029272      0.040011      0.138128
Cu	     10.30671      8.24928     10.42290         0.319898     -0.167984      0.093342
O	      4.21767      6.16323      4.19726        -0.105431     -0.335184     -0.001316
O	      6.06032      4.13763      8.50441         0.148681     -0.020869     -0.192185
O	      8.26259      6.33445      8.30096         0.012092     -0.013502      0.075046
O	      6.18353      6.12027     10.63561        -0.194012      0.369026      0.116863
O	      8.32065      8.19994     10.31793        -0.593536      0.132795      0.004267
O	      2.08115      2.01757      2.16259        -0.010358      0.162158     -0.129183
O	      4.18959      4.09394      1.80497        -0.172365      0.006905      0.046687
O	      4.05530      2.21653      4.26326         0.252359     -0.056270     -0.075758
O	      6.12212      4.21176      4.11127         0.063194     -0.230091      0.131976
O	      6.13198      1.87473      6.24338         0.171160     -0.074701     -0.055556
O	      8.39937      4.21819      6.15081         0.054353     -0.103607     -0.134581
O	      2.11923      4.09010      4.16937         0.238038      0.147516     -0.091776
O	      4.15720      4.08645      6.50086         0.153385      0.212954      0.065199
O	      6.27040      6.19597      6.19838        -0.136950     -0.058724      0.101704
O	      1.94584      6.21453      6.33362         0.014443      0.052002     -0.027467
O	      4.13163      8.39312      6.14580        -0.074628      0.046673      0.067930
O	      4.07798      6.09067      8.47804         0.058552     -0.039401      0.169376
O	      6.32276      8.32747      8.36064         0.042289     -0.038151      0.025174
