# total energy = -195.21114439 eV
 
CRYSTAL
PRIMVEC
0.059122 6.195273 6.283830 
6.227761 0.061056 6.282167 
4.173780 4.150948 0.018573 
PRIMCOORD
36 1
Li	      2.14771      8.22447      6.27407         0.049322     -0.101936      0.159046
Li	      2.00300      0.10441      2.10207        -0.196152      0.032237     -0.252719
Li	      4.26570      6.20693      2.18985         0.003291     -0.039493      0.067764
Li	      2.08637      4.11473      2.18141         0.109803     -0.015895      0.090022
Li	      4.12744      4.23112      4.30722        -0.121308      0.096075     -0.133367
Li	      6.24041      4.18500      6.25400        -0.022743     -0.023077      0.211582
Li	      0.10863      4.06275      4.18765         0.178419     -0.133850     -0.002827
Li	      2.11506      4.16947      6.15916        -0.059771      0.064717     -0.064458
Li	      4.16195      6.24899      6.16346        -0.107079      0.116395      0.010759
Sc	      4.19082      4.19723      8.33664         0.314505     -0.214841     -0.557976
Mn	      4.11488      2.13946      2.07138        -0.201295      1.193985     -0.994368
Fe	      6.32360      6.17146      8.31194         0.167515     -0.098524     -0.025652
Cu	      6.21914      6.27968      4.22473        -0.323591      0.439444     -0.024758
Ni	      4.17041      4.14880      0.03222         0.406649     -0.187392      0.069679
Ni	      8.32606      4.17732      4.23314         0.154798     -0.178473      0.326707
Ni	      6.22421      2.16068      4.23207         0.087279      0.053640      0.209640
Ni	      4.20889      2.08780      6.29495        -0.030176      0.141337      0.216842
Ni	      2.18911      6.13040      4.25313         0.229955     -0.316061      0.023827
O	      2.10684      4.13620      4.19250        -0.117755     -0.355702      0.135442
O	      4.23051      6.21342      4.23327         0.158226      0.057142      0.051919
O	      2.23264      2.09173      2.18404         0.013275     -0.102056      0.166297
O	      4.18559      4.02999      1.99382         0.066240     -0.513965      1.143059
O	      4.15280      2.05300      4.07049         0.310588     -0.121677      0.201278
O	      6.39592      4.19023      4.22713         0.008906     -0.209412     -0.001326
O	      6.11673      1.97297      6.26156         0.185514      0.754547     -0.627398
O	      8.48565      4.33980      6.25343        -0.456442     -0.255289     -0.487734
O	      4.20651      3.98499      6.30409         0.030463      0.135966      0.072854
O	      6.44970      6.23429      6.32303        -0.117602     -0.026308     -0.341155
O	      6.22456      4.27734      8.35820        -0.250209     -0.233819      0.087891
O	      8.30061      6.27589      8.47602        -0.017759      0.140679     -0.123424
O	      1.94766      6.20996      6.20067         0.216306     -0.000781      0.184279
O	      4.17425      8.43369      6.45875        -0.043542     -0.687542      0.233962
O	      4.25705      6.33602      8.31633        -0.063683     -0.311547      0.398974
O	      6.17915      8.23363      8.44321         0.146358      0.189946      0.447993
O	      6.22248      6.27363     10.49708        -0.384171      0.213019     -0.881175
O	      8.31146      8.35425     10.49607        -0.324132      0.498513      0.008522
