# total energy = -196.21919722 eV
 
CRYSTAL
PRIMVEC
-0.007176 6.180264 6.283238 
6.226162 0.010073 6.265965 
4.146388 4.104491 0.011012 
PRIMCOORD
36 1
Li	      4.13662      4.12318      0.13921        -0.007061      0.024782      0.112432
Li	      6.12704      4.10855      2.19334        -0.047492      0.113823     -0.032473
Li	      4.14253      2.12063      2.20504        -0.112814      0.030384     -0.014134
Li	      6.13197      2.09711      4.22654        -0.038217     -0.006577      0.083896
Li	      4.22567      6.09915      2.12317         0.090116     -0.050682     -0.009739
Li	      2.16286      4.06124      2.13921         0.048110     -0.065081     -0.020242
Li	      2.16366      2.05872      3.99318         0.014967      0.033782     -0.003481
Li	      4.18162      2.06367      6.19306         0.004382     -0.050117     -0.004985
Li	      4.18910      6.16691      6.23389        -0.018571      0.052179     -0.076505
Sc	      2.11229      2.02142      0.12855         0.011727     -0.003488      0.311329
Mn	      6.20249      4.12340      6.27574         0.234377      0.021221     -0.169991
Fe	      2.06689      6.14309      4.16759        -0.055651     -0.180941      0.157931
Cu	      4.14045      0.08679      4.15998        -0.087447      0.295359      0.250144
Cu	      6.16949      8.21771      6.29557         0.049567      0.011234     -0.221177
Ni	      4.16537      4.07961      4.14667        -0.038122      0.042707     -0.110275
Ni	      4.16533      8.15651      4.16355         0.174168     -0.109520     -0.021158
Ni	      4.11963      4.13452      8.33282        -0.091845     -0.015074     -0.049082
Ni	      6.19150      6.20513      8.37994         0.104046     -0.048946     -0.071795
O	      4.28939      6.11375      8.49432        -0.266509     -0.058063     -0.211391
O	      6.32372      8.25799      8.23626         0.083781      0.328067      0.199370
O	      2.11077      2.03202      2.06784        -0.009316      0.005107     -0.151270
O	      4.13720      4.11245      2.25177         0.009546      0.033435     -0.218303
O	      4.18084      2.10465      4.18804         0.051332     -0.229508      0.044390
O	      6.22606      4.16580      4.36404         0.083820      0.007398     -0.073511
O	      6.25728      2.22334      6.29188        -0.026644     -0.019734     -0.036878
O	      8.16274      4.14152      6.17957        -0.032995     -0.052409      0.156128
O	      2.05542      4.13165      4.27407        -0.013548     -0.181367     -0.058361
O	      3.99719      6.11737      4.13559         0.346061      0.050957     -0.004393
O	      4.24066      4.13419      6.18773        -0.016058      0.003624      0.473351
O	      6.20299      6.15222      6.45984        -0.027926     -0.091752     -0.055799
O	      6.11335      4.12882      8.24656        -0.036876     -0.303721      0.083302
O	      8.09606      6.24416      8.45625         0.198275     -0.007420     -0.387040
O	      2.01207      6.11419      6.15240        -0.029474      0.170441      0.302392
O	      4.20414      8.22525      6.21108        -0.187564      0.006304      0.123147
O	      6.24266      6.12935     10.31036        -0.161226      0.119634      0.068418
O	      8.34592      8.19208     10.43714        -0.198920      0.123960     -0.364245
