# total energy = -196.45309206 eV
 
CRYSTAL
PRIMVEC
-0.023117 6.182802 6.331154 
6.207217 -0.027828 6.335728 
4.131233 4.117966 -0.011443 
PRIMCOORD
36 1
Li	      8.26588      2.09717      6.33789        -0.004729      0.027716      0.010553
Li	      6.12094      2.11912      8.40515        -0.042173      0.042625     -0.037471
Li	      8.16555      4.17743      8.40484        -0.084671      0.068432     -0.045714
Li	      8.24338      6.13445      6.47832         0.008489      0.001438      0.106729
Li	      6.23749      4.11517      6.48937         0.047921     -0.019153      0.075161
Li	      6.15545      4.09937     10.48082        -0.061833      0.018214     -0.112294
Li	      8.30512      6.14681     10.43164         0.017147      0.044562     -0.112116
Li	      4.16096      6.14625      6.24196         0.002196      0.001537     -0.023528
Li	      6.28590      6.03019      8.40023        -0.000262     -0.017273      0.022541
Sc	      6.25224      1.97614      4.34361         0.216993     -0.064686     -0.012983
Mn	      2.04085      6.19243      8.39866        -0.055813     -0.292452      0.076389
Fe	      4.07624      8.21602      8.37697         0.200238     -0.196106      0.001873
Cu	     10.30379      4.09723      6.31844         0.035874      0.038660     -0.132497
Cu	      6.13425      6.21708      4.25512        -0.079999      0.080778     -0.064938
Cu	      4.07896      4.16291      4.27399        -0.086685      0.078665      0.081956
Ni	      8.29596      4.06870      4.29058        -0.043324      0.002415     -0.131221
Ni	      2.07192      4.09319      6.31777        -0.005833      0.043711      0.132871
Ni	      4.17409      4.04557      8.43479        -0.171428      0.254034      0.111432
O	      6.18169      6.32054      6.21036         0.031762     -0.208789      0.051335
O	      6.04455      4.11929      8.39628         0.448902      0.042960      0.014326
O	      8.23576      6.30211      8.45164        -0.066894     -0.480544     -0.001175
O	      2.13731      1.89968      2.10551        -0.151757      0.218390     -0.081303
O	      4.26749      4.05020      2.01044        -0.023606      0.053796      0.211729
O	      4.11548      2.10556      4.07821        -0.004708      0.041762      0.096394
O	      6.16345      4.15895      4.05591        -0.079228     -0.050389      0.083413
O	      6.24968      1.96919      6.31559        -0.001772      0.123253      0.104467
O	      8.34318      4.08201      6.30051        -0.182797      0.009091      0.093549
O	      2.11877      4.05215      4.22997         0.179902      0.048741     -0.101574
O	      4.19261      6.07303      4.23252        -0.027582     -0.023741      0.011137
O	      3.98855      4.09938      6.49536         0.094025      0.023005     -0.613856
O	      2.01782      6.05435      6.50841         0.118584      0.161433     -0.098352
O	      4.25497      8.26763      6.41468        -0.158823     -0.019857     -0.052070
O	      3.96862      6.16721      8.48723         0.090095      0.104431      0.029830
O	      6.18487      8.34552      8.45884        -0.140587     -0.038628      0.074215
O	      6.16552      6.14628     10.64867         0.105737     -0.059167     -0.139738
O	      8.25585      8.23934     10.39934        -0.123362     -0.058864      0.370930
