# total energy = -103.30237951 eV
 
CRYSTAL
PRIMVEC
2.004325 4.182191 2.086166 
4.099993 -2.119312 -2.119847 
-0.003755 4.203953 -4.212698 
PRIMCOORD
16 1
Li	      2.09163      8.31308     -2.15579         0.008765     -0.006417     -0.003621
Li	      2.04540      2.03935      0.02529        -0.012916     -0.007669      0.003815
Li	      2.00477      4.23831     -2.15306         0.012091      0.012037     -0.003213
Li	      1.95621      2.17003     -4.18540        -0.011613      0.006500      0.004635
Ti	      4.07517      2.08086     -2.12849        -0.000555     -0.006365     -0.002518
Ti	      4.07337      4.18660     -4.23121         0.007259      0.008506     -0.009496
Ni	      3.97772      4.15093      0.00411        -0.047514     -0.072129     -0.049499
Ni	      0.07301      2.12636     -2.13257         0.050484      0.072836      0.048885
O	      2.11674      2.03379     -2.12804         0.196939      0.096347     -0.000598
O	      4.07043      4.09199     -2.18648        -0.091274     -0.072938     -0.116248
O	      2.14885      4.17133     -4.26526         0.137311      0.004104      0.119979
O	      4.06493      2.00336     -0.12551         0.007798     -0.142945     -0.081885
O	      4.08041      0.06693     -2.06127         0.087598      0.071650      0.119390
O	      1.93397      4.24456      0.00003        -0.194097     -0.098186     -0.001390
O	      4.08579      2.15446     -4.12148        -0.007687      0.138615      0.088894
O	      1.89837      6.31015     -2.07588        -0.142587     -0.003945     -0.117130
