# total energy = -197.54075534 eV
 
CRYSTAL
PRIMVEC
-0.006527 6.212156 6.322334 
6.166785 0.028138 6.287062 
4.134951 4.141991 -0.005012 
PRIMCOORD
36 1
Li	      2.08718      2.06256      0.07612         0.043703     -0.062611      0.069023
Li	      2.02456      6.23459      8.29058        -0.000069      0.037415     -0.031255
Li	      4.16202      8.26898      8.42167        -0.040326      0.011309     -0.042305
Li	      6.10073      2.10814      4.10110        -0.011395     -0.036609     -0.039646
Li	      8.25547      4.17166      8.35468        -0.022367     -0.029732      0.028537
Li	      8.26158      6.23766      6.33065        -0.018377      0.000898     -0.029512
Li	      6.15918      8.33661      6.42859        -0.021047      0.034020      0.022456
Li	      4.08616      6.24598      6.43599        -0.069188      0.064146     -0.015197
Li	      8.18232      8.32675      8.36841        -0.008976     -0.013897      0.017724
Sc	      2.04545      6.25353      4.29283        -0.006206      0.018110      0.259783
Mn	      6.18770      4.11675      6.24565         0.062358     -0.006500      0.089359
Fe	      2.08639      2.09662      4.15730        -0.174837      0.017290     -0.063619
Cu	      4.12528      6.21188     10.48634        -0.104034      0.122953     -0.012504
Cu	      4.14265      4.07408      4.14594        -0.016397      0.009050     -0.037559
Cu	      4.12762      8.29932      4.34496         0.101414     -0.073181      0.081546
Cu	      6.18382      6.26968      8.32576         0.130670     -0.319931     -0.153446
Ni	      4.12183      4.11948      0.12896         0.021111      0.055414      0.047779
Ni	      6.14023      2.11569      8.35819         0.046380      0.113491      0.010664
O	      4.11992      8.33287      6.31249         0.021465     -0.176034      0.062424
O	      4.29594      6.23190      8.50058        -0.087049     -0.015067      0.168168
O	      6.19808      8.10238      8.40399         0.027535      0.224855      0.051805
O	      8.35428      8.36081     10.47647        -0.051374     -0.015591     -0.011973
O	      2.00141      2.07878      2.32432         0.059508      0.013610     -0.392856
O	      4.10508      4.20454      2.20115        -0.022253     -0.103721      0.224937
O	      4.02115      2.01396      4.16369         0.377592     -0.026477     -0.022768
O	      6.23214      4.14110      4.26242        -0.189719     -0.156675     -0.125832
O	      6.18274      2.19408      6.36455        -0.034499      0.079651     -0.146601
O	      8.15616      4.15848      6.17518        -0.117250      0.023204     -0.195339
O	      2.02213      4.10810      4.25664         0.056143      0.114788     -0.003552
O	      4.16214      6.31829      4.14054        -0.114194     -0.067668      0.088665
O	      4.28840      4.13772      6.07600        -0.099828     -0.025823     -0.090979
O	      6.17650      6.07624      6.04310         0.009004     -0.021609      0.402796
O	      6.17373      4.28677      8.15064        -0.033364      0.135189     -0.062762
O	      8.11553      6.23884      8.43276        -0.074838      0.005599     -0.023606
O	      2.01233      6.23338      6.32818         0.177473     -0.018164     -0.081112
O	      6.11662      6.15578     10.68295         0.183230      0.088299     -0.043242
