# total energy = -195.53693204 eV
 
CRYSTAL
PRIMVEC
-0.019652 6.217756 6.177002 
6.186963 -0.010789 6.167915 
4.126336 4.140860 -0.009007 
PRIMCOORD
36 1
Li	      6.17846      6.22011     12.24124        -0.001666      0.003351     -0.049187
Li	      8.21378      8.27373     12.21110        -0.027721     -0.017986     -0.069248
Li	      8.26892      4.08350      4.21537         0.030004     -0.008841      0.098724
Li	      6.20612      2.07307      4.20766        -0.006854     -0.016814      0.042654
Li	      6.13854      6.18212      4.17138        -0.006348     -0.009268      0.023125
Li	      6.20992      4.10363      6.06987        -0.022570     -0.028771     -0.062803
Li	      4.08638      8.30963      4.21249         0.018819      0.058269      0.029053
Li	      2.05747      6.22597      4.19331        -0.017594     -0.007702      0.019721
Li	      4.07961      6.23287      6.04263        -0.029912     -0.013978     -0.084228
Sc	      4.10656      8.23641      8.23356        -0.045893     -0.034199      0.000322
Mn	      8.26255      8.28959      8.31795        -0.022017      0.015504     -0.123070
Fe	      8.19357      4.12625      8.22189         0.006487     -0.029523      0.046344
Ni	      4.13279      6.18881      2.05143        -0.016256      0.054849     -0.057834
Ni	      6.16499      4.14698      2.04486         0.031531      0.013850     -0.061510
Ni	      4.14447      4.16418      4.11399        -0.056927     -0.008673      0.073952
Ni	      4.12388      2.06834      6.13802         0.030075      0.067890     -0.027645
Ni	      2.05634      4.15432      6.12348         0.108281      0.028215     -0.082231
Ni	      6.18778      6.20670      8.27178        -0.027075      0.027807     -0.018980
O	      6.16267      6.21777     10.15741        -0.009334     -0.005344      0.242987
O	      2.05571      2.10754      1.95383         0.072344     -0.049892     -0.126246
O	      4.07483      4.12845      2.03797        -0.002656     -0.103587     -0.151827
O	      4.12584      2.21903      4.13198        -0.030026     -0.121052     -0.146458
O	      6.04522      4.16616      4.01712         0.188151     -0.006605      0.110412
O	      6.01205      2.07510      6.25210         0.111569      0.010833     -0.127352
O	      8.19532      4.25198      6.30385        -0.050448     -0.059487     -0.247487
O	      2.19100      4.15031      4.01628        -0.103165     -0.034718      0.032990
O	      4.13846      6.05146      4.02885         0.010656      0.170347      0.077816
O	      4.02577      4.07996      6.27353         0.097446      0.099484      0.134756
O	      6.31898      6.34333      6.27087        -0.133259     -0.114576     -0.078200
O	      6.11099      4.15032      8.24252        -0.139248     -0.027372      0.046142
O	      8.23329      6.29232      8.21680         0.038573      0.138823      0.186071
O	      2.04838      6.06141      6.26086         0.005639      0.112300     -0.133272
O	      4.26787      8.24049      6.18350        -0.118779     -0.050493     -0.004063
O	      4.12335      6.09960      8.24181        -0.008954     -0.082033      0.066110
O	      6.28796      8.27372      8.22126         0.108614      0.013024      0.204156
O	      8.24536      8.27701     10.14038         0.018515      0.016367      0.216307
