# total energy = -192.07559542 eV
 
CRYSTAL
PRIMVEC
0.030489 6.183483 6.146108 
6.249046 0.007074 6.169813 
4.184022 4.155605 -0.013669 
PRIMCOORD
36 1
Li	      4.19843      4.13218      0.11384        -0.025908      0.001519      0.100192
Li	      6.20571      4.23902      2.07813        -0.039733     -0.004965     -0.009302
Li	      4.13606      2.08583      2.08990        -0.059448      0.034717     -0.036307
Li	      4.19575      6.17989     10.20166        -0.036321     -0.071522      0.003751
Li	      4.27115      6.15769      2.13300         0.021696     -0.005119     -0.004395
Li	      2.08422      4.14071      2.10495         0.045221     -0.041458     -0.036289
Li	      2.07689      2.12086      3.92374         0.031192      0.017253     -0.004388
Li	      6.31483      4.13597     10.17759        -0.028913      0.041883      0.001287
Li	      4.23312      4.15239      8.26729         0.007187      0.012608      0.026223
Sc	      2.15495      2.11597      0.08680         0.012349      0.042498      0.016759
Mn	      6.26607      8.23970     10.19557        -0.036294      0.260786      0.009033
Ni	      4.18880      4.13295      4.09093         0.212671      0.004608     -0.236335
Ni	      8.38086      6.17159      6.19042        -0.005524      0.034979      0.022097
Ni	      6.28828      4.14270      6.18823         0.050180     -0.028252     -0.019157
Ni	      8.36024      6.18312     10.22369         0.039532      0.029247     -0.047570
Ni	      6.26069      8.31698      6.15759        -0.026101     -0.043278      0.091401
Ni	      4.21501      6.20672      6.14951         0.013566      0.000483     -0.029378
Ni	      6.25425      6.20222      8.19796         0.081417      0.004343     -0.225258
O	      2.06442      2.05619      2.05020         0.003622      0.036395     -0.104461
O	      4.17137      4.16452      2.24487        -0.001577     -0.024360     -0.098081
O	      4.27551      2.21860      4.16369        -0.038806     -0.143659     -0.067113
O	      6.13079      4.00058      4.10871         0.036254     -0.038057     -0.029329
O	      6.23138      2.04939      6.02914         0.073057     -0.062674     -0.095411
O	      8.30655      4.18294      6.09293         0.137057     -0.069748     -0.036232
O	      2.32027      4.16881      4.15150        -0.211495     -0.164557     -0.050675
O	      4.19049      6.03443      4.18904         0.073616      0.060128     -0.076796
O	      4.22138      4.14710      6.01801        -0.046075     -0.061705      0.206315
O	      6.30495      6.24150      6.30893        -0.004435     -0.043265      0.067257
O	      6.25661      4.32507      8.18677         0.018531     -0.109462      0.210566
O	      8.16549      6.23076      8.19888         0.095389      0.004396      0.040034
O	      2.14909      6.16873      6.11036        -0.090001      0.075385      0.001349
O	      4.24253      8.21893      6.04287        -0.069500      0.069924     -0.054980
O	      4.37275      6.19373      8.08074        -0.128177      0.015272      0.217411
O	      6.25395      8.13335      8.26429        -0.015942      0.090150      0.094857
O	      6.24756      6.30196     10.07104        -0.069945     -0.033725      0.209913
O	      8.16608      8.22508     10.23501        -0.018341      0.109233     -0.056988
