# total energy = -219.62094293 eV
 
CRYSTAL
PRIMVEC
0.014033 6.398331 6.190515 
6.170349 -0.013941 6.218200 
4.106190 4.276508 -0.001727 
PRIMCOORD
36 1
Li	      0.11999      6.32693      6.13516        -0.061074     -0.003881     -0.014063
Li	      2.13076      8.32280      6.12591        -0.023002     -0.025657      0.013218
Li	      4.15168      6.34914     10.31749         0.029711     -0.004610     -0.003888
Li	      2.02117      4.31073      2.15904        -0.024373     -0.002124     -0.051493
Li	      1.98832      2.26741      4.15875        -0.012641      0.001003      0.004084
Li	      2.06832      6.33018      4.30212        -0.011829     -0.024786      0.024842
Li	      2.08624      4.43990      6.11073         0.003517      0.037447      0.038295
Li	      4.01963      6.42253      6.15418         0.039325      0.034951      0.016961
Li	      4.12304      4.32964      8.27954         0.015182      0.005116     -0.020099
Sc	      4.06210      8.57620      8.13285         0.010211     -0.057962      0.008276
Cr	      6.32923      8.49455     10.32558         0.191146      0.079358     -0.164219
Cr	      4.12928      6.37384      2.11230        -0.033768      0.054103     -0.117883
Cr	      8.19597      6.35462      6.20018        -0.146337     -0.157576      0.217956
Cr	      6.16932      4.24665      6.22007         0.111104      0.069843      0.029676
Co	      6.17359      6.39918      8.27287         0.036776     -0.011176     -0.044152
Cu	      4.17272      8.46480      4.20565        -0.096995     -0.108912     -0.067741
Ni	      2.11084      6.39525      8.21164         0.109840     -0.076317      0.109725
Ni	      4.03190      4.28773      4.15596         0.011512      0.001083     -0.006423
O	      2.02508      4.27340      4.13438        -0.117197     -0.015405      0.014807
O	      2.07834      6.38863      6.27798         0.019748     -0.038438     -0.215874
O	      2.00292      2.05952      2.09295         0.030459      0.117064      0.020672
O	      4.12403      4.33469      2.10912        -0.149205     -0.002884      0.019755
O	      4.20884      2.19664      4.21389         0.047758     -0.083844      0.054897
O	      6.12392      4.07713      4.19038         0.075942     -0.067178      0.108248
O	      6.10977      2.19650      6.22019         0.021613     -0.021089     -0.020421
O	      8.14554      4.49765      6.16242         0.074991      0.120012     -0.037079
O	      4.08207      6.33926      4.05223         0.001629      0.225411      0.025304
O	      4.17532      4.06141      6.16922        -0.047525     -0.039703      0.055947
O	      6.21473      6.24138      6.31105        -0.015508      0.067383     -0.041072
O	      6.17102      4.14688      8.29069        -0.025638     -0.112770     -0.050176
O	      8.18299      6.40546      8.11447         0.126797     -0.028326     -0.174021
O	      4.11708      8.57424      6.13293        -0.016302      0.045003      0.082209
O	      4.25128      6.46743      8.26078         0.005394      0.060556     -0.039680
O	      6.19140      8.57420      8.37018        -0.010474      0.000865      0.185461
O	      6.16918      6.62054     10.20041         0.014436     -0.025192      0.025568
O	      8.14442      8.57117     10.36202        -0.185223     -0.011370      0.012385
