# total energy = -219.68301010 eV
 
CRYSTAL
PRIMVEC
-0.036231 6.270463 6.388842 
6.175612 -0.009126 6.361319 
4.109783 4.154859 0.001293 
PRIMCOORD
36 1
Li	      4.17253      8.21106      8.44204         0.060181     -0.044101      0.050145
Li	      4.14194      6.17628     10.41385        -0.015545     -0.013174     -0.079388
Li	      8.13660      6.33616      6.47692         0.015980      0.016596     -0.024109
Li	      6.10344      4.23032     10.59563        -0.042668      0.020397      0.017863
Li	      8.17860      6.28386     10.57255         0.011617      0.030346      0.026334
Li	      6.17114      8.27177      6.48354         0.012180     -0.007732      0.087098
Li	      4.14358      6.20850      6.49315         0.012195     -0.044765      0.048033
Li	      8.14443      8.39498      8.57309         0.002058      0.049161      0.039003
Li	      6.08800      6.33413      8.47981        -0.071194      0.056802     -0.088039
Sc	      6.12325      4.23222      6.45295        -0.077643     -0.003207     -0.103419
Cr	      2.07455      8.31570      6.35761        -0.123665      0.110959     -0.095248
Cr	      6.13899      8.28093     10.56858        -0.083544      0.253074      0.018665
Cr	      2.07200      2.09380      4.24564         0.292656      0.012895     -0.101586
Cr	      4.07532      4.18074      4.28770        -0.065964     -0.254866     -0.049872
Co	      6.14453      6.24371     12.70613         0.203075     -0.100180     -0.540331
Cu	     10.19907      6.27445      8.54790         0.055032      0.092054      0.292092
Cu	      8.22110      4.19841      8.52446        -0.145660     -0.062845      0.018086
Ni	      2.09118      6.21042      8.47238         0.029048     -0.048858      0.052289
O	      8.28177      6.15948      8.52355        -0.158324      0.133511      0.008594
O	      4.03974      6.25565      8.45852         0.215592      0.036884     -0.048111
O	      1.95804      2.07741      2.12029         0.059922     -0.051605     -0.022097
O	      4.11152      4.24365      2.07166         0.014605      0.017264     -0.431775
O	      4.09404      2.21537      4.19511         0.069391     -0.167594     -0.041908
O	      6.11375      4.14853      4.24244         0.022315      0.076843      0.097741
O	      6.23589      1.99058      6.22805        -0.017961     -0.241231      0.433161
O	      8.32074      4.06386      6.46294         0.377965      0.028457     -0.080142
O	      2.11348      4.07090      4.15183        -0.073557      0.046204      0.087270
O	      4.22069      6.12157      4.30804        -0.259729      0.360426     -0.572457
O	      4.12105      4.15657      6.23389         0.082240     -0.014888      0.195677
O	      6.18602      6.21488      6.22883         0.004645     -0.032481      0.105458
O	      6.20455      4.11551      8.49904        -0.096382      0.007168      0.066200
O	      1.86780      6.33452      6.43400        -0.522052     -0.134773     -0.132067
O	      4.02602      8.53106      6.37240         0.180688      0.420121      0.062607
O	      6.15701      8.35771      8.63773        -0.016129     -0.215551     -0.135720
O	      6.09149      6.34611     10.79616        -0.033144     -0.344325      0.829316
O	      8.10874      8.32644     10.75628         0.081777      0.013014      0.010638
