# total energy = -220.04053072 eV
 
CRYSTAL
PRIMVEC
0.026928 6.325899 6.434114 
6.072725 0.041956 6.417294 
4.069196 4.227540 0.006916 
PRIMCOORD
36 1
Li	      8.10329      8.48564     12.72497        -0.050652     -0.013141      0.040444
Li	      6.13215     10.47444      8.62288        -0.024994      0.038261      0.045287
Li	      4.11915      6.25169     10.63690        -0.013865      0.075962      0.002077
Li	      6.17556      8.47485     10.69114         0.017038     -0.074711      0.052378
Li	      4.04005      4.19366      4.36726        -0.045302      0.055661      0.033618
Li	      4.06917      2.19483      6.44814         0.034420      0.064211     -0.039280
Li	      8.05258      6.45291     10.70504         0.024201      0.008217      0.028865
Li	      6.14592      8.44997      6.51265         0.091940     -0.028704      0.000693
Li	      8.05459      8.51003      8.65422         0.021453     -0.008662     -0.053359
Sc	      3.95581      6.31222      6.43991        -0.096354     -0.250950     -0.244343
Cr	      4.13103      8.47926      8.55769        -0.221485     -0.001909      0.118775
Cr	      6.04903      2.15491      8.52292         0.028635     -0.088892      0.162698
Cr	      2.11067      2.07421      4.26677         0.013748     -0.043588     -0.039498
Cr	      6.11677      4.23421      6.36049        -0.054377     -0.038414     -0.015485
Co	     10.11314      8.51543     10.78959        -0.934145      0.232414      0.187110
Cu	      6.11106      6.36678     12.79905        -0.077985      0.167144      0.081791
Cu	      8.10846      4.28599      8.54006         0.272462     -0.140010      0.127708
Cu	      6.15389      6.44093      8.62927        -0.031743     -0.003912      0.167081
O	      8.12693      6.26788      8.62140        -0.204157      0.114279     -0.056075
O	      6.09052      6.19123     10.87022         0.298828      1.025215     -0.223438
O	      8.29314      8.48591     10.68732        -0.005545     -0.200551     -0.033797
O	      2.01825      2.15059      2.26290         0.115458     -0.067400     -0.062325
O	      4.02125      4.26529      2.07381         0.136826     -0.071707     -0.037848
O	      3.94445      2.20881      4.12849        -0.108927     -0.047983     -0.047033
O	      6.08240      4.41456      4.36306         0.104496      0.002529     -0.113189
O	      6.09411      2.24830      6.55507         0.024212      0.157221     -0.058455
O	      8.17704      4.28385      6.52897        -0.040701     -0.012268     -0.117402
O	      1.89159      4.05800      4.18960         0.329308     -0.141157     -0.073346
O	      4.13663      6.44226      4.20804         0.269018     -0.817499      0.043756
O	      4.13714      4.28301      6.40608        -0.022512     -0.001752      0.086063
O	      6.10979      6.25903      6.23446         0.041445      0.090959      0.050827
O	      6.14265      4.20582      8.43232        -0.200845      0.159357      0.203929
O	      1.94784      6.30807      6.43463         0.178994      0.013060     -0.005196
O	      4.09579      8.40221      6.54472         0.001474     -0.139200     -0.256588
O	      4.17464      6.47065      8.53218         0.025837      0.021179      0.118767
O	      6.07717      8.40948      8.65838         0.103797     -0.033257     -0.075208
