# total energy = -218.80425666 eV
 
CRYSTAL
PRIMVEC
0.024075 6.092760 6.264974 
6.249086 0.019234 6.270291 
4.179282 4.079047 -0.000703 
PRIMCOORD
36 1
Li	      8.42307      8.21332     12.50331        -0.029101      0.008950     -0.060339
Li	      8.36534     10.11988     10.46921        -0.060699     -0.023992      0.056909
Li	      8.33868      4.05410      8.29622        -0.106412      0.071799      0.008186
Li	      4.18653      4.12658      4.25470         0.004967      0.049399      0.081245
Li	      6.17350      4.12282      6.28231        -0.075645     -0.012633      0.005079
Li	      6.22479      4.09014     10.40760         0.036594     -0.011875     -0.134864
Li	      6.27238      8.15689      6.28590         0.045386     -0.032275     -0.098784
Li	      4.23010      6.02097      6.31078         0.027593     -0.028979     -0.053847
Li	      4.26163      4.12485      8.30813         0.172894     -0.128134     -0.055165
Sc	      8.30212      6.17983      6.29537        -0.036736      0.094201      0.177628
Cr	      6.27499      2.08764      4.17111        -0.020162      0.078856      0.521899
Cr	      6.28658      2.09684      8.35266        -0.205866      0.175757     -0.025607
Cr	      6.24374      6.14423      4.21440        -0.152671      0.015839      0.201653
Cr	      2.10723      6.04214      4.23133         0.065798     -0.340955     -0.115475
Co	      4.15377      2.07407      2.09444        -0.115623      0.267353      0.138340
Ni	      4.19109     10.11614      6.26575         0.053142      0.238283     -0.128657
Ni	      2.17042      6.08003      8.30690        -0.094971      0.034542      0.013151
Ni	      6.19001      6.03953      8.31364         0.309067     -0.348801     -0.043524
O	      2.10952      2.02615      2.20286         0.551105      0.254615     -0.083476
O	      4.28958      4.08784      2.04941        -0.336927     -0.857210      0.082812
O	      4.14569      2.07805      4.12640         0.064151     -0.064696     -0.325717
O	      6.29521      4.10225      4.12687         0.047332     -0.061852      0.053915
O	      6.26812      1.96645      6.25575        -0.016993     -0.009064     -0.087985
O	      8.53165      4.07318      6.24405        -0.029924      0.026941     -0.001817
O	      2.07802      4.10699      4.18618         0.011854      0.236928      0.025732
O	      4.19076      6.13136      4.06899        -0.049042      0.023145      0.055407
O	      4.15707      4.07081      6.30556        -0.098478     -0.039017      0.131703
O	      6.26302      6.09689      6.21188         0.001690      0.053849     -0.015698
O	      6.28783      4.01524      8.32099        -0.019406      0.168481     -0.023142
O	      8.43389      6.09004      8.45065         0.013401      0.023883      0.028844
O	      1.97430      6.08065      6.15069         0.101274      0.053867     -0.071231
O	      4.18429      8.23356      6.47037         0.038121     -0.401626      0.273195
O	      4.16967      6.26987      8.34978         0.196115      0.510360     -0.095308
O	      6.10249      8.12658      8.46162        -0.293554     -0.046230     -0.286942
O	      6.37407      6.16227     10.40168        -0.032443     -0.042284     -0.081736
O	      8.25564      7.98207     10.40955         0.034170      0.062575     -0.066385
