# total energy = -223.53738668 eV
 
CRYSTAL
PRIMVEC
0.025968 6.287411 6.167467 
6.207443 0.015667 6.178194 
4.166491 4.227415 -0.018065 
PRIMCOORD
36 1
Li	     10.29098      4.25850      6.20994        -0.066846      0.031545      0.019206
Li	      6.12139      4.27947      2.07935        -0.085033      0.023134      0.023531
Li	      8.30726      4.23141      4.18431        -0.037433     -0.036531      0.033248
Li	      6.20700      2.10583      8.19102        -0.020069     -0.035080     -0.079643
Li	      4.19995      4.18069      4.03754         0.018458     -0.068408     -0.040794
Li	      4.18536      2.05842      6.15848         0.009468     -0.147424      0.010677
Li	      6.25853      4.18129      6.19634         0.057694     -0.063724     -0.034549
Li	      6.16785      4.25800     10.20751        -0.005223      0.099180     -0.007160
Li	      4.29830      4.18829      8.26995         0.011907      0.000458      0.031041
Sc	      8.29888      4.22052      8.16690         0.026910      0.035286      0.062982
Cr	      6.19979      2.21091      4.19767         0.083524     -0.048416      0.065564
Cr	      8.30385      6.36840     10.25450        -0.091889      0.077746     -0.071978
Cr	      2.08542      4.21636      6.17670        -0.131286      0.012821      0.072703
Cr	      4.18919      6.23659      6.14976        -0.005692      0.009137      0.056907
Co	      4.16569      2.11249      2.07710         0.024237     -0.003028     -0.050388
Co	      6.24756      6.32032      8.20744         0.066845     -0.072172      0.009488
Cu	      6.30936      6.22444      4.09130        -0.049289     -0.067854      0.064380
Ni	      8.28338      2.15688      6.17124        -0.020251     -0.047862      0.053515
O	      6.22322      3.99831      4.05621        -0.020227      0.056031     -0.070696
O	      2.19079      2.07494      2.11388        -0.009373     -0.063074     -0.022571
O	      4.15804      4.08472      2.03558         0.033071     -0.107229      0.026687
O	      4.16013      2.08715      4.00631         0.023465     -0.013667     -0.040357
O	      6.22167      2.07140      6.02365        -0.164893     -0.025907      0.072873
O	      8.30699      4.16437      6.16822        -0.024547      0.144585      0.070268
O	      2.04223      4.36441      4.20610         0.093186      0.018065     -0.020109
O	      4.16905      6.37042      4.24477         0.033986      0.012876      0.184645
O	      4.05417      4.37963      6.23278         0.125087      0.234851     -0.074844
O	      6.19465      6.40751      6.15224        -0.033949      0.074976      0.101194
O	      6.22620      4.37084      8.23681        -0.034006      0.081420     -0.074519
O	      8.22690      6.33752      8.26252         0.052802      0.044061     -0.045382
O	      2.18813      6.26747      6.12262         0.074634     -0.093854      0.039934
O	      4.21115      8.28075      6.28635         0.092834     -0.068436     -0.020313
O	      4.31879      6.43779      8.10754        -0.016388      0.000010     -0.167577
O	      6.13580      8.29261      8.22795        -0.051875     -0.013375     -0.053593
O	      6.30187      6.46345     10.12073        -0.006638     -0.010997      0.031228
O	      8.20989      8.35781     10.30661         0.046798      0.030859     -0.155597
