# total energy = -92.98857169 eV
 
CRYSTAL
PRIMVEC
-0.033750 2.220966 2.231842 
2.241221 -2.218107 -0.036960 
13.222119 10.705986 0.028387 
PRIMCOORD
16 1
Li	      2.80188     -1.42844     -0.56235         0.014897      0.028300     -0.014557
Li	      2.29787      2.42414     -0.09975         0.004457      0.000923     -0.005347
Li	      4.29135      1.87035     -2.09035         0.004490      0.008576     -0.008802
Li	      6.06508      3.50860     -1.63990        -0.010542     -0.023339      0.014179
Ti	      8.84737      6.40154     -6.57600        -0.043376     -0.047748      0.039905
Ti	     10.97911      8.59362     -6.52206         0.031590      0.041534     -0.032639
Ni	      6.14694      5.87341     -3.87615         0.123343      0.127321     -0.108684
Ni	     13.70446      9.12722     -9.22094        -0.127542     -0.139416      0.115975
O	     10.76441      8.36442     -8.51167        -0.046190     -0.056820      0.052863
O	      9.06046      6.63017     -4.58570         0.062467      0.067688     -0.065298
O	     11.03349      6.38843     -6.56750         0.001700      0.001703     -0.001202
O	      6.67515      4.17933     -4.39643        -0.131783     -0.143218      0.124705
O	      4.37128      2.14918     -0.02824        -0.007740     -0.000243     -0.003644
O	      4.23532      3.89495     -2.00150        -0.005611     -0.006955      0.002447
O	     13.17469     10.81941     -8.69884         0.127538      0.142685     -0.117485
O	      2.39349      0.40187     -0.15803         0.002301     -0.000991      0.007586
