# total energy = -222.66126270 eV
 
CRYSTAL
PRIMVEC
-0.017166 6.140632 6.504397 
6.115421 0.011960 6.476372 
4.085535 4.083013 -0.000202 
PRIMCOORD
36 1
Li	      4.12261      8.18781      8.68453         0.009036      0.021569     -0.030730
Li	      4.13126      6.10371     10.68580        -0.048170      0.012817     -0.020406
Li	      6.12931      8.15141     10.77560        -0.026184      0.064074      0.006948
Li	      6.08128      2.07246      8.62459         0.001809      0.032861     -0.031194
Li	      6.07326      4.05365      6.59538        -0.026274     -0.024775      0.060358
Li	      6.04581      4.19412     10.80910        -0.004486     -0.038592      0.019501
Li	      6.09335      8.17326      6.67284         0.039441      0.029187      0.097217
Li	      8.12229      8.20866      8.79599         0.011069     -0.010213     -0.087461
Li	      6.12945      6.17065      8.86640         0.000044     -0.014403      0.106718
Sc	      4.12994      6.08648      6.54820        -0.159467     -0.097426      0.059985
Cr	      8.10776      8.21219     12.92319         0.067264     -0.092141      0.129548
Cr	      8.07806      4.14880      8.60832         0.034931     -0.146092     -0.068134
Cr	      2.02674      2.05293      4.25132         0.030212     -0.050647     -0.114312
Cr	      4.07973      2.09616      6.44425         0.144645     -0.034971     -0.061287
Co	     -0.00271      6.11762      6.48880         0.073334     -0.091696      0.065530
Co	      6.08741     10.16846      8.66642         0.091403     -0.101651     -0.054192
Cu	      4.09606      4.07315      4.31018         0.049446     -0.081517      0.006215
Cu	      8.09433      6.19108     10.77183         0.054757      0.021608      0.026355
O	      6.09689      8.37194      8.69468        -0.054683     -0.041195     -0.005076
O	      6.16787      6.13833     11.00638         0.004053      0.011437     -0.042211
O	      2.03981      2.09001      2.16730         0.019306     -0.002737     -0.025645
O	      4.13314      4.08361      1.93274         0.039931      0.052128     -0.111385
O	      4.00837      2.11217      4.41988        -0.060629     -0.051570      0.047548
O	      6.06965      4.15619      4.07511        -0.033421     -0.025725     -0.008305
O	      6.11717      1.94370      6.48015        -0.157772     -0.020154     -0.040758
O	      8.24698      4.08477      6.55784         0.041358      0.046379     -0.052404
O	      2.08970      4.09603      4.08599        -0.016901      0.031424      0.041636
O	      4.06371      6.04876      4.37555         0.026848      0.203057     -0.020080
O	      4.08827      4.04741      6.59397        -0.022979      0.075835      0.057349
O	      6.15277      6.13975      6.28798         0.067815     -0.008448      0.030422
O	      6.28770      4.11144      8.62586        -0.068490      0.034459      0.016029
O	      8.16623      6.00030      8.45402         0.023032      0.142866     -0.001755
O	      1.95766      6.17405      6.69827        -0.153173      0.000302      0.066896
O	      3.99469      8.21549      6.50611         0.033515      0.092428     -0.032188
O	      3.90332      6.16119      8.64103        -0.026369      0.048184      0.088548
O	      8.14939      8.12447     10.99086        -0.004252      0.013337     -0.119279
