# total energy = -222.58416936 eV
 
CRYSTAL
PRIMVEC
0.014090 6.229488 6.261247 
6.192864 0.018562 6.256185 
4.144047 4.164962 -0.002737 
PRIMCOORD
36 1
Li	      2.05212      2.07697      0.08879         0.054346     -0.040305     -0.035723
Li	      2.03390      0.09763      1.99293        -0.006303     -0.052551      0.040502
Li	      6.14821      2.10818      8.29381        -0.041871      0.004471      0.124987
Li	      8.27462      4.16363      8.19020         0.001563     -0.004393      0.015082
Li	      8.34282      6.22909      6.34634        -0.052082      0.036201     -0.036005
Li	      6.15938      4.08715      6.35104        -0.078719      0.035046      0.002347
Li	      8.30877      6.28697     10.40765         0.021876      0.013146      0.009482
Li	      4.07805      6.23373      6.32990         0.018984     -0.043110     -0.033790
Li	      4.16875      4.14287      8.31340        -0.011057      0.011412     -0.046761
Sc	      6.18936      6.22173      4.14821        -0.133583     -0.007946      0.243558
Cr	      8.30752     10.36217     10.44040        -0.128738      0.224519     -0.114678
Cr	      4.13650      4.19093      4.17939        -0.059650      0.048766      0.036492
Cr	      2.10696      4.20950      6.30150        -0.072974      0.008769      0.080026
Cr	      6.30923      6.16748      8.29048         0.269848     -0.157923     -0.000869
Co	      0.02059      0.03559      0.01753        -0.059033      0.203402      0.073028
Co	      6.25416      8.30403     10.45317         0.419701      0.015324      0.018266
Ni	      4.09968      2.09685      2.05150         0.016877      0.073991     -0.049050
Ni	     10.28264      8.28711     10.40629         0.071443      0.079751      0.037290
O	      2.11938      2.08408      2.14789         0.029440      0.014832     -0.155302
O	      4.13076      4.08978      2.22033        -0.030167      0.020930     -0.121792
O	      4.23840      2.09784      4.17182        -0.668922     -0.080261      0.032718
O	      6.21429      4.05904      4.24182         0.017226      1.170568     -0.037207
O	      6.24165      1.95492      6.08957        -0.016894     -0.350210      0.166358
O	      8.44828      4.18749      6.14225         0.296393     -0.135132      0.085967
O	      2.11045      4.14632      4.29941         0.091226     -0.073312     -0.053286
O	      4.15536      6.20072      4.15058        -0.009782     -0.177782     -0.012493
O	      4.05355      4.19942      6.14922         0.157509     -0.011224      0.018534
O	      6.20822      6.33244      6.31838        -0.002570     -0.054241      0.162154
O	      6.17122      4.30188      8.37889         0.027389      0.164093     -0.203905
O	      8.12065      6.27812      8.32950        -0.243996      0.000082     -0.033237
O	      1.95291      6.16828      6.30259        -0.175097      0.148744     -0.112966
O	      4.22510      8.46575      6.20755        -0.051435      0.057218      0.251488
O	      4.25122      6.32027      8.42475         0.024409     -0.029411     -0.069695
O	      6.15127      8.20943      8.36839        -0.061043     -0.061292     -0.121246
O	      6.15984      6.32612     10.31818        -0.158642     -1.103202     -0.165813
O	      8.19894      8.41733     10.39719         0.544325      0.051029      0.005539
