# total energy = -225.31824307 eV
 
CRYSTAL
PRIMVEC
0.012095 6.233666 6.327818 
6.215015 -0.009653 6.349530 
4.117866 4.144632 0.018963 
PRIMCOORD
36 1
Li	     10.25216      4.27102      6.47672         0.030172     -0.074640     -0.022307
Li	      8.17299      2.09278      6.42131         0.073478     -0.002543      0.021501
Li	      6.14421      4.13510      2.10958         0.036557     -0.013773     -0.014390
Li	      6.19531      2.06080      4.37294        -0.076722     -0.015730      0.015134
Li	      6.22189      2.04243      8.34772        -0.022995      0.036166      0.002840
Li	      8.32273      4.12881      8.35422        -0.014759      0.041960     -0.033842
Li	      8.38487      6.10460      6.47387        -0.060913      0.041606      0.047163
Li	      8.28848      8.20633      8.50414        -0.022331     -0.053816     -0.014330
Li	      6.22891      6.22360      8.43642         0.083958      0.034538      0.015030
Sc	      6.22764      4.04066      6.47464         0.122143     -0.132104     -0.044294
Cr	      4.17672      6.19605     10.54442         0.139943      0.122972     -0.058936
Cr	      2.08396      2.09936      4.16024         0.098476      0.014952     -0.034471
Cr	      8.13465      6.26572     10.51317         0.200812      0.039764      0.121041
Cr	      4.11393      6.24899      6.40566        -0.127012      0.067225      0.013829
Co	      4.17901      8.32792      8.43280         0.024072     -0.056799     -0.013506
Co	      4.15462      4.12156      4.17431         0.030549      0.026693     -0.217401
Co	      6.17541      8.30847      6.36779        -0.094187      0.082364      0.127577
Cu	      6.17482      4.14975     10.44787         0.004975      0.112219     -0.044999
O	      8.34202      6.18242      8.73317        -0.062574     -0.012557     -0.172626
O	      2.23958      2.08617      2.19493         0.009805      0.007437      0.073778
O	      4.15439      3.97500      2.18794        -0.093363     -0.069691      0.367392
O	      4.10105      2.00199      4.08479        -0.049194     -0.166617      0.098731
O	      6.27170      4.24178      4.24603        -0.267956     -0.021269      0.059450
O	      6.18582      2.08122      6.37577         0.046335      0.116806     -0.022535
O	      8.26171      4.14570      6.19769        -0.109236      0.005014     -0.035423
O	      1.99584      4.16995      4.36635         0.226951     -0.002107      0.024214
O	      4.12202      6.24254      4.36428         0.000810      0.197039     -0.009036
O	      4.02866      4.22386      6.28722         0.051393      0.009547     -0.095441
O	      6.13614      6.33382      6.25322        -0.014240     -0.001757     -0.022219
O	      6.24049      4.18955      8.41107        -0.059291     -0.046329      0.106783
O	      2.13935      6.11617      6.17180        -0.002031     -0.086509      0.152767
O	      4.24187      8.25701      6.50441         0.106543     -0.048704     -0.252103
O	      4.15047      6.38443      8.43850         0.002597     -0.052132      0.012028
O	      6.07306      8.31062      8.27650        -0.063794     -0.012055     -0.092146
O	      6.26457      6.21466     10.59077        -0.084519     -0.131692     -0.050873
O	      8.32040      8.26445     10.56160        -0.064452      0.044523     -0.008381
