# total energy = -217.42838757 eV
 
CRYSTAL
PRIMVEC
0.027259 6.237358 6.250723 
6.211637 0.016540 6.261342 
4.171547 4.195841 -0.019291 
PRIMCOORD
36 1
Li	      4.11295      2.10759      2.10202        -0.004483     -0.012245      0.026656
Li	      4.13595      6.26368     10.37200         0.031545      0.012145     -0.006725
Li	      4.24344      6.26035      2.15825         0.071584     -0.057750     -0.003518
Li	      2.04141      2.12024      4.13139        -0.020732      0.038478     -0.056028
Li	      4.14960      4.20323      4.15389        -0.003705      0.016285      0.035688
Li	      4.21296      8.28074      4.17394        -0.010418     -0.020975      0.013823
Li	      2.12155      4.12240      6.20690         0.033354      0.003996     -0.051802
Li	      4.19471      6.25306      6.21834         0.004003     -0.021742     -0.030394
Li	      4.17435      4.16890      8.27331         0.041998      0.024730     -0.052447
Sc	      4.16255      4.11898      0.05760         0.029819     -0.099484      0.102923
Cr	      2.13337      8.32429      6.26971        -0.001682     -0.028668      0.011692
Cr	      6.14775      2.17052      4.13492        -0.062374      0.038857     -0.036410
Cr	      2.22922      6.19880      4.11773         0.138079     -0.003066      0.048540
Cr	      6.13012      6.28892      8.32107        -0.198757     -0.038768      0.017614
Cu	      6.17576      4.23884      6.25229         0.022229     -0.002650     -0.109383
Ni	      2.15640      6.25434      8.35436         0.097580     -0.049935     -0.047915
Ni	      2.11758      4.13657      2.13997         0.071344     -0.069981     -0.017765
Ni	      4.11486      2.15204      6.27699         0.021828      0.023468     -0.011247
O	      4.24478      4.13434      6.24901        -0.118908      0.143977     -0.045079
O	      2.08612      2.06778      2.01457         0.006928      0.022312      0.016818
O	      4.22611      4.20256      2.05041        -0.059611     -0.022041     -0.021056
O	      4.32289      2.05214      4.22734         0.103044      0.000929     -0.092118
O	      6.29747      4.03191      4.14151        -0.073403     -0.012471      0.107005
O	      6.24380      2.15871      6.16934         0.093876     -0.063001     -0.002939
O	      8.26943      4.15270      6.27646        -0.022139     -0.057764     -0.079832
O	      2.05242      4.34772      4.14500         0.004462      0.067292      0.194099
O	      4.01255      6.32324      4.09923        -0.086358     -0.055181      0.053354
O	      6.26506      6.22177      6.34012        -0.127327      0.136722     -0.036319
O	      6.27015      4.37105      8.26455        -0.095734      0.036515      0.154450
O	      8.18763      6.24417      8.39080        -0.005758      0.133323      0.073722
O	      2.11129      6.30027      6.19898         0.020061      0.010220     -0.131752
O	      4.09253      8.37741      6.18370         0.035244      0.022822      0.031442
O	      4.29119      6.24583      8.36860         0.132750     -0.009550     -0.053366
O	      6.26278      8.25566      8.41906        -0.013724     -0.039823      0.009552
O	      6.31994      6.39074     10.36926         0.006406     -0.014532     -0.060646
O	      8.18508      8.21045     10.49222        -0.061020     -0.052444      0.049363
