# total energy = -217.56261825 eV
 
CRYSTAL
PRIMVEC
0.029747 6.238041 6.384100 
6.241277 -0.013063 6.426877 
4.129948 4.156517 0.021578 
PRIMCOORD
36 1
Li	      4.22690      4.12501      0.20618         0.080183     -0.054039      0.040045
Li	      2.09851      2.01094      0.18627         0.055977     -0.073687      0.020386
Li	      2.01215      0.08998      2.08627        -0.040677      0.013568     -0.078145
Li	      4.04942      2.12657      2.04999         0.008649      0.017964     -0.079788
Li	      4.08202      0.06346      4.24662         0.013845     -0.015147     -0.031328
Li	      0.12958      1.96707      2.09329        -0.019022      0.015647      0.049240
Li	      2.13481      2.00273      4.09541        -0.029047      0.031501     -0.112152
Li	      6.25074      4.12813      6.42150         0.032702     -0.050226      0.034075
Li	      6.19630      8.37800      6.48348        -0.015668      0.048624      0.037412
Sc	      4.18693      8.33641      4.34607        -0.045395      0.005589      0.041685
Cr	      6.19900      2.13937      4.34343         0.053108      0.216386     -0.025241
Cr	      8.24207      6.16398      6.41234         0.017266     -0.059898      0.084095
Cr	      4.16252      6.23654      6.40696        -0.032873      0.007813      0.172831
Cr	      4.17955      4.14971      8.52250        -0.014797      0.128166     -0.034245
Cu	      2.13128      4.05911      2.11466        -0.048294      0.025248     -0.043081
Cu	      6.22236      6.24161      8.54611        -0.100612     -0.000030     -0.005325
Ni	      4.14697      4.15492      4.20656         0.003485      0.036726      0.033159
Ni	      2.10154      6.24477      4.34814        -0.015307      0.015469      0.045000
O	      6.19682      3.97555      4.25024         0.132463     -0.201898      0.037772
O	      8.28725      4.33918      6.51694        -0.026146      0.101606     -0.024904
O	      2.05550      2.13347      2.12413         0.001771     -0.074996     -0.018212
O	      4.06416      4.15832      2.18111         0.149836     -0.000069     -0.134353
O	      4.20900      2.08524      4.42416         0.048463     -0.159133      0.057027
O	      6.07213      2.06811      6.23780        -0.021072     -0.031915     -0.091974
O	      2.10412      4.21854      4.15221        -0.084500     -0.106252     -0.070945
O	      4.15993      6.23080      4.38834         0.094876      0.107483      0.068410
O	      4.16564      4.08869      6.48853         0.038797     -0.025339      0.038374
O	      6.30036      6.24535      6.49384         0.159046     -0.016730      0.087338
O	      6.19863      4.20487      8.57379        -0.051706     -0.019722      0.063777
O	      8.24229      6.28268      8.47323         0.193758      0.081160     -0.095439
O	      2.20744      6.21552      6.38346        -0.012109      0.011763      0.074520
O	      4.19458      8.22249      6.36050        -0.002062     -0.038631     -0.029379
O	      4.25328      6.14696      8.43612        -0.166500     -0.116446     -0.155152
O	      6.32478      8.23975      8.72733        -0.138998      0.013070      0.122256
O	      6.27923      6.33051     10.62934        -0.120389      0.040149     -0.090471
O	      8.27165      8.30938     10.58543        -0.099051      0.126226      0.012733
