# total energy = -217.39591316 eV
 
CRYSTAL
PRIMVEC
0.044254 6.252946 6.226689 
6.236971 0.033091 6.237786 
4.165632 4.183699 0.014402 
PRIMCOORD
36 1
Li	      4.27187      8.25594      8.36255        -0.003589     -0.028501     -0.005969
Li	      4.13499      0.07836      4.11420        -0.046317      0.024118      0.035163
Li	      6.25615      8.37396     10.32912         0.031164      0.019525     -0.033035
Li	      8.27041      4.24595      8.29288        -0.000078     -0.039874     -0.031550
Li	      2.12141      2.06585      4.13841         0.006568     -0.052910     -0.078862
Li	      8.30307      6.25235      6.27137        -0.009993     -0.032968     -0.012850
Li	      6.25713      4.25989      6.26217         0.015685      0.048096     -0.058669
Li	      4.29178      6.23232      6.32924        -0.005665      0.008023      0.077846
Li	      4.20276      4.21931      8.32938        -0.008172      0.041425      0.110419
Sc	      8.31992      2.21772      6.23792         0.041768     -0.052950     -0.192238
Cr	     10.36360      4.24534      6.26042         0.034924      0.039883     -0.000471
Cr	      6.37067     10.41348      8.38711        -0.206958      0.285613     -0.338495
Cr	      4.19930      4.05905      4.21612        -0.009424      0.340593     -0.314355
Cr	      8.34121      6.28508     10.34126         0.129650      0.132914      0.867983
Cu	      6.21650      2.17322      8.29460         0.051066     -0.064866      0.183257
Cu	      6.29991      8.30355      6.26996        -0.086112      0.256233     -0.148361
Cu	      6.21509      6.26976      8.30061         0.031761     -0.022496      0.340613
Ni	      6.27669      4.18100     10.33848        -0.043816     -0.083500      0.195234
O	      6.26364      6.36836      6.37669         0.087591     -0.247388     -0.115979
O	      6.26718      4.20827      8.34522        -0.071845     -0.058543     -0.396213
O	      8.31528      6.27371      8.44589        -0.041134     -0.009952     -1.066064
O	      2.03153      1.98334      2.07492         0.057373      0.046668      0.143819
O	      4.26695      4.24046      2.09256        -0.094333     -0.010157      0.047173
O	      4.13454      2.30308      4.11303         0.000904     -0.374854     -0.013126
O	      6.13208      4.17418      4.10192         0.060193     -0.054320      0.319297
O	      6.24193      2.05663      6.33612        -0.187174      0.072434     -0.065931
O	      8.41264      4.20515      6.22384        -0.086173      0.174635      0.028882
O	      2.15374      4.24672      4.23021         0.043899     -0.529979     -0.146190
O	      4.08313      6.18523      4.04404         0.329867     -0.085139     -0.097449
O	      4.12796      4.22487      6.04505         0.176537      0.061548      0.255757
O	      2.05800      6.24002      6.22231         0.028724     -0.024145      0.183260
O	      4.24965      8.44493      6.18495         0.023474     -0.088955      0.223556
O	      4.16847      6.28368      8.33913         0.256420     -0.050832     -0.001169
O	      6.30503      8.39198      8.22127         0.033594     -0.159421      0.231841
O	      6.36279      6.26492     10.42694        -0.412020      0.119691     -0.142499
O	      8.38454      8.23500     10.42606        -0.128361      0.400351      0.015377
