# total energy = -217.38220218 eV
 
CRYSTAL
PRIMVEC
0.034987 6.371771 6.175714 
6.301095 0.017004 6.193679 
4.210382 4.269606 0.002004 
PRIMCOORD
36 1
Li	      8.32471      4.40005      4.16745        -0.038922      0.016421      0.031469
Li	      6.23096      2.21767      4.11838         0.042891      0.008738      0.088729
Li	      8.24846      4.29891      8.22147        -0.027652      0.018121     -0.017230
Li	      2.24708      2.06350      4.18450        -0.048183     -0.034611     -0.007149
Li	      8.26918      6.39406      6.14708         0.051507     -0.029070      0.064431
Li	      6.41456      4.32479      6.21267        -0.002834     -0.007690     -0.018167
Li	      6.37248      4.30045     10.19804         0.036557     -0.025494     -0.049128
Li	      6.44191      8.40247      6.18813        -0.031474     -0.005862     -0.017738
Li	      6.37056      6.35250      8.20915        -0.000791     -0.044509      0.001209
Sc	      4.37170      6.41425      6.18276         0.146824     -0.020676      0.051716
Cr	     10.47326      4.26594      6.20730        -0.049355      0.477114     -0.037075
Cr	      4.21756      4.22728      4.13862         0.028705      0.138471      0.032612
Cr	      8.33499      6.37794     10.29905        -0.070748     -0.043807     -0.245405
Cr	      8.43682      8.48461      8.24277         0.330018      0.015279      0.012589
Cu	      6.33106      4.24703      2.13252         0.111735      0.018976     -0.111999
Cu	      4.25596      2.12956      2.13036        -0.220579     -0.042184     -0.159430
Cu	      6.30839      2.18849      8.24283         0.040373     -0.005541     -0.078131
Cu	      8.37847      2.19904      6.18532        -0.142751      0.062711     -0.263671
O	      8.50249      4.17244      6.17888         0.082499      0.161213     -0.022718
O	      6.23437      4.15771      8.23663        -0.343739      0.079739      0.027670
O	      6.36963      8.63538      8.23277         0.059832     -0.135897      0.018759
O	      2.06436      2.04763      1.98420         0.350126      0.038506      0.364403
O	      4.32118      4.37942      2.07066        -0.130848     -0.006475      0.093588
O	      4.19876      2.23827      4.03248         0.011421      0.062961     -0.065607
O	      6.22944      4.28680      4.07091        -0.097676     -0.006650      0.228894
O	      6.37634      2.03773      6.26174        -0.124416     -0.303806     -0.134270
O	      2.20606      4.46014      4.09033         0.049072      0.014005      0.036025
O	      4.09803      6.31189      4.08623        -0.055858     -0.095312      0.164215
O	      4.23211      4.32073      6.17103        -0.055546     -0.019326     -0.017860
O	      6.30182      6.43311      6.19765        -0.064311      0.008190     -0.039100
O	      8.44497      6.47478      8.31265        -0.175959      0.091272      0.183461
O	      2.07325      6.47640      6.14241        -0.039936     -0.159154     -0.120526
O	      4.15512      8.57194      6.30344         0.162367      0.037711      0.202294
O	      4.15169      6.25702      8.27963         0.093151     -0.144266     -0.007992
O	      6.48280      6.34390     10.39737         0.113141     -0.051411     -0.004189
O	      8.47971      8.29714     10.28461         0.011357     -0.067685     -0.184678
