# total energy = -224.90675327 eV
 
CRYSTAL
PRIMVEC
0.000043 6.221852 6.290346 
6.255140 -0.006223 6.296697 
4.181745 4.163908 -0.015913 
PRIMCOORD
36 1
Li	      0.05429      6.21042      6.32629        -0.005176     -0.081069     -0.140552
Li	      8.30624      2.06912      6.30575         0.031361      0.010321     -0.016437
Li	      4.18417      8.28550      8.23563         0.030674     -0.022806     -0.094335
Li	      6.33482      8.23972     10.54909        -0.004860     -0.083603     -0.007869
Li	      6.26074      2.05744      8.30103         0.009474     -0.024503      0.036879
Li	      8.26125      6.28661     10.51591        -0.053772     -0.084939      0.034208
Li	      6.15268      8.32414      6.35635        -0.062692      0.030348     -0.034046
Li	      4.18077      6.33405      6.32124         0.011501      0.066275     -0.066519
Li	      6.27059      6.24087      8.35518        -0.054458      0.016316      0.142351
Sc	      4.16831      4.19916      4.16157        -0.049946      0.194259     -0.062217
Cr	      2.08227      6.20625      8.22576         0.003540     -0.007866     -0.001214
Cr	      2.09262      2.06749      4.19237         0.021522     -0.081176     -0.014070
Cr	      8.38447      6.20311      6.32096        -0.018677     -0.102054     -0.026685
Cr	      8.34245      8.28669      8.38068         0.026505      0.011605      0.213406
Fe	      4.15887      8.29005      4.27326         0.035482      0.479839     -0.126314
Co	      4.27409      6.20744     10.47349        -1.236719     -0.222102     -0.215706
Cu	      6.27215      4.12029      6.36543         0.030102      0.002241      0.035256
Ni	      8.35750      4.12734      8.34372         0.024851      0.000407      0.088840
O	      6.16988      2.16577      6.28016         0.037692     -0.037227      0.030236
O	      2.11402      1.98570      2.17890         0.012791     -0.075850      0.009208
O	      4.22576      4.12083      2.11139         0.108381      0.019366      0.030967
O	      4.11566      2.06034      4.28272         0.226624     -0.785688     -0.035261
O	      6.31650      4.23282      4.02256         0.468673     -0.053420      0.095948
O	      8.25296      4.19551      6.27407         0.251606     -0.015240     -0.606470
O	      2.06792      4.09708      4.12674         0.260384     -0.003270      0.099041
O	      4.26566      6.25737      4.22261        -0.004171     -0.292606     -0.032656
O	      4.24431      4.07610      6.34661        -0.082983      0.040816      0.028707
O	      6.34740      6.14910      6.19333        -0.010124      0.033647     -0.001006
O	      6.22520      4.13261      8.58587        -0.099046     -0.026640     -0.499842
O	      8.31189      6.25637      8.30852         0.027214      0.054886      0.018282
O	      2.08480      6.25970      6.43994         0.048535      0.006793      0.087330
O	      4.18969      8.31553      6.08978        -0.028500     -0.040158      0.596595
O	      4.09569      6.15624      8.41345         0.236946      0.004491      0.645108
O	      6.34792      8.47625      8.38881         0.005804      0.090255     -0.068700
O	      6.12135      6.16840     10.49688        -0.162087     -0.088432     -0.049865
O	      8.39418      8.32576     10.39965        -0.036452      1.066785     -0.092598
