# total energy = -99.69544587 eV
 
CRYSTAL
PRIMVEC
0.021120 2.324659 2.956837 
3.695081 0.322511 -0.324833 
1.826132 8.069549 -0.009704 
PRIMCOORD
16 1
Li	      0.20792      0.38949     -0.24412        -0.008421      0.006493      0.004257
Li	      2.25520      2.74795      0.13102         0.015797      0.007017     -0.000740
Li	      4.00712      4.24409     -0.16393        -0.018821     -0.011915      0.006785
Li	      2.33725      3.95476     -2.42016         0.008168     -0.003526     -0.004100
Ti	      3.26587      6.46822     -4.45105        -0.032645      0.082981     -0.080120
Ti	      4.81650      8.59022     -6.18153         0.034492     -0.078457      0.078801
Ni	      4.45929      3.75678     -4.71572         0.158941      0.000188     -0.006240
Ni	      3.60644      8.98019     -8.87468        -0.157449      0.001165      0.002788
O	      1.35586      6.70015     -4.59594        -0.003223     -0.055886      0.033705
O	      3.03131      8.03658     -5.71129        -0.001475      0.055412     -0.034677
O	      4.03055      4.89250     -3.21197        -0.144902     -0.059989      0.029676
O	      3.19427      4.95449     -5.64945        -0.075132      0.176400     -0.137422
O	      0.46833      2.11546      0.77481        -0.107932      0.089366     -0.051535
O	      2.09831      4.55399     -0.48252         0.108787     -0.089214      0.051587
O	      4.86491      7.77877     -7.93857         0.079431     -0.177125      0.140080
O	      4.05635     10.16848     -7.42110         0.144384      0.057090     -0.032846
