# total energy = -223.93662791 eV
 
CRYSTAL
PRIMVEC
0.007906 6.262372 6.295146 
6.237824 0.009896 6.293067 
4.154176 4.169258 0.011034 
PRIMCOORD
36 1
Li	     10.36887     10.40965     12.54490         0.134620     -0.000873     -0.052077
Li	      6.23094      8.33105     10.43833         0.064564     -0.004610     -0.037645
Li	      2.09027      4.16765      2.18484         0.020307     -0.050946      0.198324
Li	      6.22859      6.28655      4.31741        -0.073047     -0.022894     -0.018175
Li	      6.22231      4.24829      6.24830        -0.055591     -0.084581     -0.043425
Li	      0.04799      4.19698      4.19899        -0.002006      0.020157      0.019452
Li	      6.21956      8.24075      6.27977        -0.042190      0.065506     -0.019602
Li	      4.29346      6.26056      6.27868        -0.034814      0.031332     -0.123840
Li	      4.21867      4.17943      8.32703         0.012746     -0.006204     -0.000833
Sc	      6.25622     10.36639      8.36204        -0.327302      0.105159     -0.086601
Cr	      8.38671      8.40744     12.53278        -0.481390     -0.272759      0.198844
Cr	      6.24796      2.25663      8.38852         0.275714     -0.336172      0.007143
Cr	      8.28593      6.23076      6.33239         0.196876      0.119665      0.195687
Cr	      8.24802      6.26422     10.49673        -0.110011      0.156605      0.013154
Fe	      4.10735      4.15549      4.29818         0.214383      0.075534     -0.212177
Co	      8.30442      4.18005      4.21072         0.026904     -0.176156      0.218090
Cu	      4.17067      8.36483      8.36502        -0.247265      0.109469     -0.298920
Cu	      6.22422      6.26587      8.36090         0.107013      0.004731      0.121957
O	      6.32907      6.22750      6.42119         0.017569     -0.035275     -0.023829
O	      6.26943      4.03081      8.43714         0.033680      0.252892     -0.058085
O	      2.04737      2.10677      1.98306        -0.274938      0.078412      0.136485
O	      4.16396      4.20086      2.25108        -0.025703      0.319016     -0.096806
O	      4.15771      2.03943      4.30406         0.014272      0.365209      0.070352
O	      6.30475      4.19354      4.15750        -1.013329     -0.029493     -0.155677
O	      6.25145      2.04358      6.51083        -0.207046      0.018068      0.065482
O	      8.32852      4.17352      6.12457         0.044504      0.255902     -0.222865
O	      2.12570      4.27829      4.24211         0.041842     -0.122979      0.033018
O	      4.06991      6.19381      4.08304         0.118957      0.019400     -0.079331
O	      4.19776      4.06564      6.21761        -0.009576     -0.107003      0.160356
O	      8.44169      6.28626      8.40856        -0.178038     -0.025696     -0.100855
O	      2.07241      6.39788      6.20617         0.018715     -0.083153      0.088024
O	      4.01037      8.36453      6.34363         0.491048      0.028084      0.124791
O	      4.14808      6.30600      8.53778         0.115259     -0.202531      0.300215
O	      6.12655      8.36171      8.33814         0.372139     -0.181931      0.013374
O	      6.21640      6.25417     10.35712         0.755101      0.064963     -0.045979
O	      8.26992      8.39905     10.59719         0.006031     -0.346852     -0.288022
