# total energy = -223.71951038 eV
 
CRYSTAL
PRIMVEC
0.019465 6.254422 6.158641 
6.314178 -0.003724 6.182306 
4.214963 4.190604 -0.008303 
PRIMCOORD
36 1
Li	      2.13662      8.28756      6.17632        -0.058282      0.000640      0.031978
Li	      6.20485      2.19925      4.17683        -0.019567     -0.018271      0.006521
Li	      6.34557      6.28140      4.19832         0.016782      0.012054      0.020092
Li	      4.29697      4.06953      4.22124         0.001387     -0.029898     -0.001547
Li	      4.20170      2.13952      6.11810         0.023851     -0.010783     -0.009866
Li	      6.21987      4.19544      6.08853         0.009605      0.003458      0.007243
Li	      2.14111      6.25636      4.20015        -0.014647     -0.015242      0.020956
Li	      2.14956      4.18278      6.07385         0.024219      0.012743     -0.027764
Li	      4.20825      6.25212      6.09065        -0.023009     -0.008700      0.026610
Sc	      8.32978      4.26917      4.25728         0.006832      0.056333      0.034631
Cr	      0.06591      6.27484      6.14591         0.012190     -0.141731     -0.122380
Cr	      6.30930      4.19608      2.05275        -0.060805      0.143757     -0.024289
Cr	      4.29765      8.27565      4.11636         0.081749      0.179718      0.095960
Cr	      4.22959      4.10019      8.14761         0.015489     -0.087902     -0.173300
Fe	      6.34574      6.31219      8.05579         0.065829     -0.141217      0.414345
Co	      0.04085      2.08804      2.03334        -0.270410     -0.147745     -0.228467
Ni	      4.21455      8.34554      8.19957        -0.082951      0.133195     -0.047609
Ni	      2.13471      4.15011      2.03962         0.027670     -0.047628     -0.014588
O	      2.02774      2.02837      2.07319         0.497931     -0.116383     -0.042605
O	      4.26711      4.24308      2.01173         0.014988     -0.850348      0.013116
O	      4.22348      2.07953      4.03695        -0.029200     -0.022096      0.127842
O	      6.32861      4.16528      4.05553        -0.055123     -0.026799      0.055550
O	      6.33520      1.99462      6.33374         0.020502      0.154747     -0.018324
O	      8.53554      4.18210      6.24929         0.026126      0.024729     -0.178108
O	      1.92461      4.20151      4.02485        -0.093804      0.008549      0.184902
O	      4.19146      6.42593      3.95327         0.013070      0.007327      0.179864
O	      4.22994      4.19166      6.34000         0.011446     -0.024129      0.173552
O	      6.31723      6.25486      6.25450         0.027476     -0.037009     -0.355180
O	      6.29241      4.13010      8.26213        -0.179915      0.863705      0.109629
O	      8.44827      6.37000      8.25261        -0.201730      0.238597     -0.047688
O	      2.04289      6.25282      6.23857         0.052540      0.005892     -0.003486
O	      4.24112      8.41356      6.10504        -0.014237      0.075367     -0.184820
O	      4.20724      6.19060      8.22180        -0.042422     -0.188307      0.024582
O	      6.42109      8.33721      8.24825         0.145893      0.081795      0.017219
O	      6.30699      6.12312     10.26709         0.044971     -0.066693      0.015646
O	      8.61144      8.39919     10.12410         0.005556     -0.021727     -0.080217
