# total energy = -228.35109164 eV
 
CRYSTAL
PRIMVEC
-0.007291 6.174224 6.302489 
6.208497 -0.014223 6.308885 
4.159981 4.141029 -0.030250 
PRIMCOORD
36 1
Li	      0.13173      6.08248      6.30417        -0.022661     -0.014073      0.005314
Li	      6.15573      4.17283      2.05091         0.008811     -0.018121     -0.062193
Li	      4.17276      6.15394      2.28610        -0.023465      0.000166      0.009489
Li	      6.13389      6.18078      4.08060        -0.001295     -0.008068     -0.008884
Li	      4.15243      4.20351      4.13004        -0.021200      0.002251     -0.005795
Li	     10.33804      8.20700     10.45462        -0.033138      0.011786     -0.015500
Li	      2.11643      6.17526      4.17548        -0.001267      0.012577     -0.046660
Li	      1.99547      4.21025      6.22592        -0.051350      0.033620     -0.072551
Li	      8.31977      8.22815      8.42396         0.015672      0.034098     -0.008685
Sc	      4.11305      6.11933      6.14419         0.039678     -0.020189     -0.035570
Cr	      2.06907      2.06117      0.00413         0.011271      0.000522      0.053246
Cr	      6.23362      8.23117     10.47737         0.039662      0.005641     -0.015037
Cr	      2.09113      4.14773      2.23688         0.065706      0.005829      0.075808
Cr	      8.30353      6.19673      6.29222        -0.030410     -0.007884      0.031670
Fe	      4.15417      8.24020      8.38493        -0.012518     -0.058805      0.050886
Co	      6.22499      4.12361      6.31188        -0.029308      0.003150      0.032326
Co	      6.23419      6.18745      8.38253         0.013329     -0.001252     -0.020492
Cu	      4.13921      6.12614     10.46202         0.012896      0.035844     -0.046606
O	      2.02332      4.12970      4.01948        -0.006146     -0.011238      0.035092
O	      2.12425      2.12213      2.04590        -0.097232      0.011478      0.038829
O	      3.98545      4.07999      2.05959         0.072866      0.047449      0.054880
O	      4.21120      1.99998      4.24187        -0.023776      0.126029      0.040167
O	      6.31234      4.06627      4.34904        -0.098470      0.042017      0.138342
O	      6.20261      2.16335      6.23363        -0.001847     -0.021052      0.017658
O	      8.16871      4.13133      6.48142        -0.104879     -0.012498      0.100454
O	      4.16354      6.19135      4.19618         0.002856     -0.020791      0.024177
O	      4.25353      4.02553      6.30242         0.116682     -0.007656     -0.027766
O	      6.30814      6.08944      6.39416        -0.038247     -0.035694      0.018197
O	      6.31537      4.23646      8.27587        -0.063839      0.017701     -0.125448
O	      8.19837      6.13265      8.31011         0.039064     -0.001409      0.061975
O	      2.07137      6.25661      6.33047        -0.040944     -0.010687     -0.044972
O	      4.07034      8.25068      6.34862         0.037729      0.003216     -0.085738
O	      4.29540      6.23743      8.29861         0.002315     -0.075671     -0.097152
O	      6.16863      8.16570      8.46226         0.084577      0.031818     -0.018311
O	      6.14521      6.22331     10.31324         0.097804     -0.009667      0.024398
O	      8.22006      8.28313     10.60874         0.041076     -0.090438     -0.075547
