# total energy = -227.38138033 eV
 
CRYSTAL
PRIMVEC
0.033064 6.320885 6.161479 
6.287064 0.023801 6.171016 
4.192877 4.221696 0.014347 
PRIMCOORD
36 1
Li	      6.27940      0.11845      6.25281        -0.021930      0.035810     -0.017485
Li	      6.29113     10.44844      8.17776         0.008525      0.033472     -0.000399
Li	      6.36213      8.34467     10.22031         0.009959     -0.006058      0.063607
Li	     10.41151      6.34219      8.16585         0.089210      0.010156      0.019888
Li	      8.43146      4.25767      8.17978        -0.011405     -0.083850      0.031145
Li	      8.44793      6.30531      6.30341         0.001915      0.001760      0.005168
Li	      6.31783      8.41449      6.30845         0.046569     -0.001465     -0.030582
Li	      8.30452      8.37799      8.20523        -0.031059      0.055611     -0.008011
Li	      6.32833      6.45825      8.23968        -0.050912     -0.030362     -0.019773
Sc	      4.19853      4.15405      4.05432        -0.046999      0.080976      0.063918
Cr	      2.07248      2.12398      0.05336        -0.085451     -0.023691      0.015231
Cr	      4.18373      0.04482      4.08116         0.037098      0.005437     -0.007307
Cr	      6.33260      4.23557     10.21761         0.084237     -0.037756     -0.097954
Cr	      4.23404      6.32809      6.21307        -0.049442     -0.082098     -0.042140
Fe	      6.29507      4.20750      6.34836        -0.000715      0.001026     -0.175594
Co	      2.11904      2.10869      4.08726         0.012893     -0.010891      0.017793
Co	      8.26391      6.35961     10.19513        -0.019035      0.015056      0.073399
Ni	      4.28659      8.47391      8.19280        -0.122402      0.026716     -0.014831
O	      6.18292      8.46326      8.25314         0.128936      0.017128      0.016598
O	      2.28603      2.13954      2.08149        -0.077996     -0.051384      0.045801
O	      4.22540      4.12501      2.06041         0.027573      0.090626     -0.053887
O	      4.06656      2.06661      4.15487        -0.024798     -0.062025      0.063680
O	      6.34610      4.39137      4.14855        -0.009138      0.048757      0.009071
O	      6.35926      2.23074      6.17315         0.068662     -0.141703     -0.027969
O	      8.33317      4.17244      6.10174         0.030284      0.006163     -0.007520
O	      2.07792      4.13208      4.13596        -0.046416     -0.033900      0.004327
O	      4.32518      6.34453      4.15137         0.042393      0.043127     -0.017005
O	      4.26456      4.31096      6.18012        -0.032123      0.011205     -0.001061
O	      6.23478      6.26472      6.04090         0.036406      0.100626      0.005934
O	      6.31538      4.24675      8.24224        -0.006637     -0.000103      0.301061
O	      8.40392      6.35105      8.43813         0.042802      0.017336     -0.026378
O	      2.20055      6.42330      5.98077         0.073549     -0.041391     -0.055191
O	      4.14309      8.32522      6.09272         0.021694      0.061773     -0.077219
O	      4.24317      6.50565      8.20947        -0.048824     -0.136757      0.030257
O	      6.26100      6.23082     10.31396        -0.077334      0.049189     -0.009971
O	      8.47544      8.52558     10.33704        -0.000090      0.031484     -0.076603
