# total energy = -222.05002216 eV
 
CRYSTAL
PRIMVEC
-0.032548 6.322466 6.238710 
6.288392 -0.005376 6.211550 
4.192558 4.197179 -0.003908 
PRIMCOORD
36 1
Li	      6.27775      8.41100     10.35462         0.016182      0.006238     -0.037815
Li	      6.24935      6.26192      4.22729        -0.015164     -0.051834     -0.017003
Li	      4.20823      4.23286      4.23869         0.030597      0.031577     -0.037758
Li	      6.14237      4.33550      6.17620        -0.016935      0.037335     -0.054266
Li	     10.42241      8.41717     10.34582        -0.017824      0.019141      0.017117
Li	      8.38036      6.33502     10.31307         0.003827      0.001214     -0.003259
Li	      4.30042      6.18377      6.15575         0.018756     -0.050785     -0.023612
Li	      4.16646      4.21080      8.27896        -0.043262      0.039335      0.027516
Li	      6.28584      6.29392      8.25737        -0.028184      0.033895      0.055923
Sc	      2.13938      4.12809      6.10451         0.023368      0.004035      0.045386
Cr	      6.25153      6.32175     12.42525         0.017946      0.050709     -0.076779
Cr	      4.17864      2.09909      2.11795         0.174907     -0.098340      0.098545
Cr	      8.36475     10.47237     10.38626        -0.042747     -0.053088     -0.140324
Cr	      6.24213      2.24245      8.38522         0.015768     -0.072326      0.181306
Fe	      6.28348     10.49359      8.35517         0.052025     -0.087971     -0.029463
Cu	      2.04652      4.25120      2.17046         0.083910      0.110983     -0.163910
Ni	      8.33594      8.40477     12.39814         0.030639     -0.054076     -0.055110
Ni	      4.15691      2.15402      6.21218         0.035073     -0.038556     -0.197063
O	      6.36070      4.04119      8.27699        -0.060844     -0.012594     -0.025421
O	      2.09294      2.05006      2.04124        -0.055311      0.175509      0.128589
O	      4.21410      4.20056      2.03090        -0.054784     -0.040202      0.114714
O	      4.19804      1.93055      4.10036        -0.020759     -0.004675      0.038402
O	      6.43898      4.18782      4.06290         0.065913     -0.000217      0.215938
O	      6.28879      1.97936      6.38883        -0.009854      0.078255      0.117306
O	      8.46590      4.20561      6.20572        -0.049171     -0.058205      0.069769
O	      2.04735      4.21780      4.08425         0.003022     -0.012527      0.120016
O	      4.16821      6.25534      3.95276         0.026209      0.032630     -0.191079
O	      4.16139      4.17814      6.22455        -0.034230      0.217394      0.003870
O	      6.30081      6.32217      6.24876        -0.155958      0.029205      0.008953
O	      8.50491      6.28116      8.26626        -0.004844     -0.118668      0.178251
O	      1.97887      6.34187      6.29665         0.079522     -0.097493     -0.024232
O	      4.13255      8.50526      6.33389         0.058631     -0.083969     -0.071335
O	      4.11176      6.40574      8.40443         0.053017      0.063098     -0.067715
O	      6.14379      8.52357      8.27297        -0.067660     -0.095933     -0.014926
O	      6.09758      6.32936     10.45704        -0.125689     -0.016064     -0.044499
O	      8.34749      8.58758     10.38543         0.013908      0.116969     -0.146034
