# total energy = -221.57111158 eV
 
CRYSTAL
PRIMVEC
0.015613 6.188347 6.329153 
6.322383 0.011703 6.333512 
4.219890 4.133167 0.003119 
PRIMCOORD
36 1
Li	      6.41221      6.26065     12.54572         0.042259     -0.023789     -0.064912
Li	      8.33533      2.02562      6.30425        -0.001443      0.023080     -0.004050
Li	      2.10821      0.06802      2.13275        -0.016659     -0.016894     -0.042102
Li	      6.35304      2.09395      4.28314         0.033288     -0.039287      0.035159
Li	      6.28949      2.08281      8.38663         0.001726     -0.034991      0.054159
Li	      6.37434      6.13821      4.22604        -0.018491     -0.009032      0.034905
Li	      8.38045      6.26474     10.50019        -0.018351      0.028414     -0.036930
Li	      8.50718      8.14599      8.51833        -0.007024     -0.019403     -0.007545
Li	      6.32476      6.22445      8.47450         0.012289      0.026226     -0.018005
Sc	      2.11750      4.10553      2.08481         0.012080      0.021725     -0.042051
Cr	      4.26922      4.13132      4.24351        -0.067248      0.051240      0.056838
Cr	     10.44987      8.29524     10.48891        -0.038075      0.183583      0.032237
Cr	      6.26500      8.29760      6.36958         0.045831      0.096947      0.021961
Cr	      4.18817      6.22338      6.34983        -0.026239     -0.056438      0.005191
Fe	      4.37929      2.05264      6.38910        -0.156437      0.111777     -0.007857
Cu	      4.20092      2.06654      2.13353         0.080677      0.052239     -0.024429
Cu	      6.37989      4.09121      6.35971         0.061798      0.062486      0.077783
Ni	      4.19240      0.03038      4.20557         0.000836     -0.001660     -0.042429
O	      6.32853      2.11133      6.37285         0.154201     -0.026794      0.003419
O	      6.12638      8.27386      8.24714        -0.020247     -0.001466     -0.066491
O	      2.31556      2.05452      2.09691        -0.042103     -0.019149      0.035114
O	      4.24389      3.99984      2.27675        -0.001556      0.023058     -0.022499
O	      4.23094      2.13838      4.42483         0.005271      0.081659      0.060016
O	      6.27510      4.13175      4.38407        -0.031847      0.005388     -0.071883
O	      8.53886      4.21793      6.31618         0.090588     -0.111532      0.093367
O	      2.10422      4.13144      4.27976        -0.001402     -0.043897      0.021952
O	      4.22155      6.22085      4.31032        -0.018067     -0.035027     -0.038704
O	      4.04663      4.18915      6.30963        -0.113294     -0.008061      0.022215
O	      6.22481      6.32624      6.34011         0.028704      0.037459     -0.012289
O	      6.36300      4.08226      8.47397        -0.014968     -0.028744      0.205247
O	      8.43603      6.18282      8.33242         0.001946     -0.019373      0.110313
O	      2.18016      6.03769      6.29178        -0.045644     -0.049521     -0.006421
O	      4.29330      8.20777      6.12412        -0.014264     -0.006435     -0.248971
O	      4.19349      6.36766      8.39674        -0.022653     -0.069611     -0.095755
O	      6.30799      6.01772     10.50512         0.047938     -0.103612     -0.016425
O	      8.58782      8.28853     10.51247         0.056577     -0.080563     -0.000126
