# total energy = -220.59596176 eV
 
CRYSTAL
PRIMVEC
0.028473 6.284658 6.322158 
6.256700 0.041794 6.308816 
4.180457 4.190285 0.018532 
PRIMCOORD
36 1
Li	      2.20179      6.27031      8.39641         0.031596     -0.012779      0.013089
Li	     10.34131      6.36452      8.45927         0.005126     -0.014061      0.051981
Li	      4.13503      4.27039      4.30701        -0.027024     -0.026001      0.236509
Li	      8.33191      6.41608      6.44512        -0.075642      0.451976     -0.084175
Li	      6.21801      4.17285      6.37163        -0.283055      0.069829     -0.048720
Li	      2.19677      6.21723      4.18102        -0.012985     -0.052441      0.019873
Li	      2.26245      4.23489      6.35897         0.302943     -0.165061     -0.089692
Li	      4.08742      6.22793      6.33944         0.123745     -0.322750     -0.035276
Li	      4.16639      4.21675      8.27149        -0.030601      0.080327     -0.232156
Sc	      0.06197      0.04942      0.08210        -0.073469     -0.079990      0.057578
Cr	      4.21758      8.36304      8.44206        -0.214802      0.266495     -0.404882
Cr	      8.36449     10.49540     10.53249         0.169782      0.021385      0.141765
Cr	      6.30215      8.44933     10.50651        -0.039321     -0.012630      0.121970
Cr	      6.19404      6.25422      4.30754        -0.261292     -0.063699     -0.533634
Fe	     10.41248      8.35052     10.51358         0.236294      0.063650      0.162997
Cu	      2.06476      2.06267      0.04736         0.061758      0.022989     -0.047716
Cu	      8.32079      4.27002      8.46681         0.308245     -0.285019     -0.123229
Cu	      6.32414      6.30783      8.31905        -0.311301      0.219489     -0.167964
O	      4.20615      4.22099      6.30428        -0.013276     -0.022930      0.191977
O	      6.34643      4.31271      8.53064         0.000828     -0.069225     -0.381216
O	      8.27384      6.19973      8.42736         0.157491      0.081056     -0.135988
O	      2.20475      2.17031      2.29756        -0.133475      0.116877     -0.025363
O	      4.08102      4.10864      2.12894        -0.072699      0.250549      0.283625
O	      4.19729      2.00971      4.11240         0.086080      0.368739      0.247887
O	      6.37930      4.20687      4.15579        -0.394497      0.022706     -0.078192
O	      6.33431      2.13528      6.20188         0.124937      0.262208      0.164118
O	      8.36381      4.08033      6.26692        -0.311656     -0.194065     -0.026930
O	      1.97891      4.07279      4.17297         0.019873      0.227188      0.653687
O	      4.29283      6.35958      4.18787        -0.317366     -0.245482     -0.042274
O	      6.35692      6.35168      6.06010         0.238987     -0.014320      0.914345
O	      2.10027      6.40149      6.35719         0.273250      0.189980      0.066626
O	      4.12819      8.41064      6.33131        -0.188842     -0.295304      0.224132
O	      4.31272      6.40515      8.53620        -0.014398     -0.288825     -0.416973
O	      6.19752      8.35164      8.52400         0.271681      0.029292     -0.133793
O	      6.18304      6.36911     10.63146         0.411027     -0.065592     -0.179559
O	      8.35925      8.52102     10.44778        -0.047941     -0.514560     -0.364428
