# total energy = -228.49823273 eV
 
CRYSTAL
PRIMVEC
0.001410 6.195075 6.245522 
6.306122 0.008517 6.238192 
4.208673 4.129632 0.001182 
PRIMCOORD
36 1
Li	      6.26665      4.17354      2.16288         0.033993     -0.026526     -0.009378
Li	      4.26785      8.26346      8.36293        -0.004672      0.003713      0.019616
Li	      6.31384      8.27878     10.25704        -0.002499     -0.000421     -0.067359
Li	      2.01905      4.15596      2.21207        -0.050834     -0.020955      0.019578
Li	      2.15381      2.06541      3.98438         0.004690      0.013619      0.034139
Li	      8.44246      6.16824      6.26032        -0.034994      0.003301     -0.027674
Li	      6.27813      4.16241      6.29470         0.017311      0.000315      0.045992
Li	      6.27968      4.17502     10.29995        -0.000145     -0.038761      0.002258
Li	      8.43035      8.22918      8.40510         0.008605      0.038156      0.013051
Sc	      8.38183      2.12105      6.28045        -0.049585      0.005581      0.002551
Cr	     10.48263      4.14906      6.24016         0.018446     -0.004227      0.037351
Cr	      4.10901      0.06903      4.09661         0.003626      0.156793     -0.086288
Cr	      6.27861      2.15129      8.36416        -0.004442      0.040650      0.081513
Cr	      4.27202      4.05673      4.12656         0.014600     -0.005688      0.014923
Fe	      6.37831      8.19872      6.30432         0.003617     -0.014791     -0.190644
Fe	      4.30458      6.15992      6.26642        -0.051616     -0.022810     -0.086002
Co	      6.31522      6.15943      8.34320         0.100675     -0.016834     -0.011042
Cu	      8.37694      6.21855     10.34466         0.026695      0.069466      0.068638
O	      8.33485      6.19137      8.43694         0.120099     -0.005902     -0.070762
O	      1.96413      2.11309      2.05000        -0.028257     -0.055072     -0.096350
O	      4.20292      4.22470      2.05999         0.031607     -0.017643     -0.052570
O	      4.18121      2.00390      4.10619         0.037255     -0.038184      0.009963
O	      6.38774      4.11430      4.12976         0.009611     -0.030926     -0.019746
O	      6.29487      2.00041      6.35468         0.024350     -0.079939     -0.017883
O	      8.49730      4.16947      6.09180         0.012438     -0.035757      0.067535
O	      2.28420      4.17330      4.27012        -0.049407     -0.136214     -0.028945
O	      4.31742      6.09373      4.21300         0.119877     -0.040783     -0.068896
O	      4.19510      4.17588      6.13738         0.014857     -0.014500      0.006442
O	      6.27538      6.19635      6.40480         0.062400      0.024968      0.098637
O	      6.29743      4.16707      8.34839        -0.017122      0.095898     -0.011941
O	      2.07683      6.16194      6.19163        -0.055302      0.034169      0.012189
O	      4.24138      8.25002      6.21540        -0.049833      0.092475      0.028148
O	      4.32643      6.18967      8.28715        -0.151266      0.027431      0.155794
O	      6.32577      8.10162      8.22736         0.002798     -0.071494      0.185116
O	      6.09275      6.20806     10.39593        -0.127339     -0.039585     -0.036682
O	      8.36016      8.39415     10.43315         0.009762      0.110474     -0.021274
