# total energy = -101.07986020 eV
 
CRYSTAL
PRIMVEC
0.001047 2.152791 2.153111 
5.702969 0.150012 -2.300481 
-1.915028 7.266394 -5.113340 
PRIMCOORD
16 1
Li	     -0.02954      2.58609      1.72121         0.006353     -0.006039      0.005859
Li	      1.84384      2.65168     -0.49963         0.027020      0.024358     -0.022578
Li	      3.85438      2.13048     -2.12484        -0.028379     -0.027533      0.024051
Li	      0.02579      4.19844      0.10789        -0.006193      0.010995     -0.007357
Ti	      3.81296      4.85308     -4.84932        -0.010704     -0.138005      0.134477
Ti	     -0.03009      7.19445     -2.88939         0.012774      0.134515     -0.130935
Ni	      1.88890      4.53609     -2.37896         0.016359      0.054945     -0.054682
Ni	      1.89409      7.51186     -5.35957        -0.016217     -0.054893      0.058222
O	      3.88599      5.10122     -2.94574         0.063840      0.193787     -0.191024
O	      3.73612      2.16918     -0.01626         0.012449      0.140637     -0.140950
O	      1.89199      7.09999     -2.79279         0.004220     -0.000410      0.000302
O	      1.96205      2.61247     -2.60870        -0.011633     -0.143013      0.139665
O	      3.78552      6.97034     -4.81494         0.232737     -0.036976      0.035801
O	     -0.10276      6.94626     -4.79286        -0.067704     -0.190873      0.183939
O	     -0.00243      5.07703     -2.92391        -0.237001      0.038329     -0.034448
O	     -0.00231      2.31587     -0.16197         0.002079      0.000175     -0.000343
