# total energy = -228.99403440 eV
 
CRYSTAL
PRIMVEC
0.007094 6.200354 6.335383 
6.267950 0.006287 6.336711 
4.186360 4.141944 -0.003673 
PRIMCOORD
36 1
Li	      4.15764      4.16682      0.16992         0.011461     -0.017306      0.023671
Li	      6.10124      4.23737      2.27500        -0.061200     -0.003316      0.067570
Li	      8.28973      4.20252      4.21221        -0.043330     -0.000925      0.056085
Li	      4.27669      6.08654      2.21536        -0.004162     -0.063861     -0.035174
Li	      2.15741      4.07788      2.17090        -0.034043      0.006801     -0.048523
Li	      6.19195      6.10707      4.10133         0.077899     -0.101825      0.065799
Li	      4.23845      4.16930      4.12569         0.004464     -0.014313     -0.057440
Li	      6.26379      4.16986      6.29613         0.024707      0.043306     -0.015999
Li	      6.32434      4.10605     10.42554        -0.055564      0.096090     -0.007044
Sc	      8.34200      2.16236      6.39055         0.049272      0.038102      0.018149
Cr	      4.13726      2.11807      2.17636         0.001243      0.166590     -0.008372
Cr	      2.13236      6.10354      4.18540         0.051368      0.045767      0.028473
Cr	      6.25398      8.29185      6.32597         0.037789     -0.102016     -0.140983
Cr	      4.25464      4.17969      8.45935        -0.161174     -0.077013     -0.009646
Fe	      6.23842      2.22187      4.25053         0.057919     -0.173276     -0.093942
Fe	      8.38820      6.08823      6.28050        -0.055425      0.115608     -0.082927
Co	      6.30917      6.20518      8.43432        -0.089671     -0.982214      0.152331
Ni	      4.22714      6.17823      6.28594        -0.008449     -0.050555     -0.210710
O	      2.16114      2.03777      2.07933        -0.012289      0.011881     -0.086886
O	      4.17001      4.03799      2.13955         0.016828     -0.089453     -0.020313
O	      4.22997      2.05889      4.24439         0.030046     -0.019939     -0.075461
O	      6.28557      4.08535      4.22145         0.016812      0.047954     -0.046192
O	      6.23355      2.05460      6.26254         0.028279      0.045130      0.106050
O	      8.36909      4.18319      6.31089         0.019050     -0.176374      0.009233
O	      2.04945      4.25792      4.33425        -0.056121     -0.072171      0.044907
O	      3.99991      6.23242      4.22801         0.105495      0.039475     -0.062156
O	      4.08492      4.08895      6.44253        -0.025836     -0.125093      0.185880
O	      6.31789      6.26980      6.43948         0.145884      0.457939     -0.721914
O	      6.19246      4.29039      8.43764         0.034139     -0.575128     -0.061202
O	      8.29357      6.26813      8.45372        -0.060724      0.071080     -0.054952
O	      2.12932      6.16301      6.17397        -0.137856      0.033048      0.109559
O	      4.23610      8.24501      6.45174        -0.136109      0.124820      0.104875
O	      4.35901      6.20060      8.39502         0.172474     -0.007089      0.155261
O	      6.28668      8.19724      8.41332         0.041465      0.910122     -0.142837
O	      6.46211      6.29235     10.36395         0.030444      0.331962      0.888832
O	      8.33676      8.18599     10.50670        -0.015083      0.066191     -0.034000
