# total energy = -226.20437097 eV
 
CRYSTAL
PRIMVEC
0.030732 6.172421 6.350502 
6.357390 0.006054 6.374815 
4.234353 4.127146 0.008246 
PRIMCOORD
36 1
Li	      6.46983      6.17688     12.57560        -0.030597      0.004832     -0.013787
Li	      2.21093      8.16861      6.23897         0.135928     -0.008349      0.003109
Li	      6.49817      8.13854     10.65121         0.011484     -0.031468     -0.045879
Li	     10.52121      6.27703      8.52373         0.021149     -0.078206      0.020705
Li	      2.10764      2.09758      4.25460        -0.020841      0.037755      0.004642
Li	     10.55001      8.22107     10.57927         0.056040     -0.064728     -0.029996
Li	      8.38945      6.25324     10.69759        -0.005238      0.010558      0.094598
Li	      4.16235      6.25807      6.25588        -0.097078      0.081396      0.009457
Li	      6.45805      6.14284      8.57916         0.009309     -0.015498      0.009929
Sc	      2.09718      0.08371      2.10621        -0.066794      0.046538     -0.017811
Cr	      4.23988      2.07250      2.16300         0.016216      0.018427     -0.033710
Cr	      4.20535      4.26320      4.27489        -0.048773      0.127748     -0.034969
Cr	      4.28002      2.03650      6.37023         0.030870     -0.068253     -0.034937
Cr	      6.35807      4.13215      6.35765         0.090976     -0.034284     -0.031359
Fe	      4.53545      6.06513     10.59663        -0.163385      0.086032      0.088233
Fe	      6.25063      8.26631      6.35359         0.066165     -0.086109      0.028499
Cu	      8.40134      4.11683      8.53877        -0.016264      0.077739      0.001916
Ni	      8.53099      8.21058      8.54423        -0.061065     -0.008855     -0.017744
O	      4.24788      6.05251      4.25004         0.020229     -0.053811      0.037292
O	      2.23625      2.13673      2.12995        -0.058734     -0.066572      0.050169
O	      4.20613      4.09888      2.30321         0.081981     -0.012316      0.049795
O	      4.24952      2.10867      4.29428        -0.005951      0.023418     -0.100823
O	      6.15840      4.11714      4.30212         0.045948      0.008143      0.024360
O	      6.14239      2.13093      6.34315         0.196688      0.028965     -0.076303
O	      8.36698      4.20420      6.21005        -0.043146     -0.091103     -0.087348
O	      2.32344      4.09164      4.39310         0.004375      0.011142      0.013191
O	      4.28850      4.07253      6.35853        -0.012959      0.100832     -0.048605
O	      6.58299      6.17499      6.33099        -0.217875     -0.022229     -0.027470
O	      6.37497      4.11441      8.33610        -0.006723     -0.005962     -0.067249
O	      8.48160      6.12023      8.26026        -0.058188     -0.050534      0.082545
O	      2.12772      6.11531      6.43146         0.010433      0.119123      0.059301
O	      4.33413      8.20559      6.51592        -0.108801      0.012189      0.062206
O	      4.20957      6.22496      8.61617         0.024776      0.056698     -0.077405
O	      6.34412      8.25474      8.40234        -0.029354      0.006367      0.104504
O	      6.37924      6.13583     10.61054         0.253040      0.002581     -0.068651
O	      8.51250      8.28208     10.55070        -0.023839     -0.162206      0.069597
