# total energy = -226.10533056 eV
 
CRYSTAL
PRIMVEC
-0.010969 6.413883 6.344524 
6.144577 0.015617 6.317740 
4.120172 4.282226 -0.013473 
PRIMCOORD
36 1
Li	      6.19788     10.59905      8.55844         0.004257     -0.062517      0.001743
Li	      6.14103      2.26680      4.14619         0.015600      0.036224     -0.010942
Li	      6.24461      6.32221      4.27221        -0.039195     -0.050635      0.044228
Li	      4.08665      4.25453      4.23710         0.013245      0.029318     -0.043076
Li	      4.06831      2.19295      6.21200        -0.013270     -0.026075     -0.041548
Li	      6.13089      4.32927      6.18030         0.062838     -0.009301     -0.057715
Li	      2.08641      6.34041      4.24584        -0.017895     -0.035406      0.027410
Li	      2.11032      4.22482      6.31984        -0.030893     -0.067520     -0.035707
Li	      8.13518      8.60419      8.41108        -0.011448      0.015281     -0.041464
Sc	      0.04241      4.27708      4.25892         0.012691     -0.046374      0.050145
Cr	      0.02798      0.03151      0.02396         0.074075      0.008459      0.007487
Cr	      8.18154      2.18751      6.32761        -0.004068     -0.004103     -0.050947
Cr	      2.06929      4.29032      2.16163         0.014248      0.032633      0.023204
Cr	      4.11085      6.18611      6.29703        -0.045985      0.044603      0.020001
Fe	     10.22940      6.43869      8.45055        -0.047427      0.090160      0.108069
Fe	      6.17290      6.58817      8.33061         0.042465     -0.108100      0.034329
Cu	      4.13224      2.12347      2.19023        -0.035266     -0.017667     -0.043696
Cu	      8.14911      4.32071      4.19723         0.132897     -0.064015      0.019671
O	      4.08534      1.93248      4.11861         0.000127     -0.006703      0.007887
O	      6.31594      4.29322      4.18997        -0.209398      0.023323     -0.033719
O	      2.03182      2.24804      2.04608         0.055903      0.044718      0.126407
O	      4.08861      4.43200      2.05424         0.057884      0.017917     -0.023913
O	      6.19004      2.05038      6.43450        -0.080924      0.011123      0.006704
O	      8.30417      4.20062      6.49554        -0.027358      0.063191      0.116533
O	      2.04451      4.31415      4.15118         0.024593     -0.019363     -0.005092
O	      4.07987      6.48113      4.30033         0.064983      0.026232     -0.080142
O	      4.08500      4.41420      6.24069        -0.004538     -0.183579     -0.041786
O	      6.06171      6.39701      6.37831         0.058021     -0.032310     -0.096617
O	      6.17943      4.20246      8.49094        -0.009472      0.111693      0.046182
O	      8.18407      6.36307      8.44748        -0.047251     -0.036941      0.063462
O	      2.04820      6.55670      6.28497         0.014530      0.015087     -0.001042
O	      4.05840      8.62621      6.37968         0.069882      0.130061      0.044646
O	      4.15826      6.34067      8.14941        -0.089328     -0.020797     -0.141133
O	      6.10505      8.48139      8.42691        -0.009050      0.025395      0.001907
O	      5.98802      6.41133     10.58942         0.062462      0.037973      0.013000
O	      8.18007      8.78596     10.66571        -0.057933      0.028015     -0.014476
