# total energy = -226.02639637 eV
 
CRYSTAL
PRIMVEC
-0.016102 6.319679 6.284269 
6.318346 -0.015342 6.283746 
4.198923 4.199277 0.003124 
PRIMCOORD
36 1
Li	      2.27127      6.25493      8.43913        -0.060241     -0.027868      0.035658
Li	      4.26415      8.22414      8.47877         0.032012      0.033564      0.029144
Li	      4.19289      6.26801     10.34241         0.023412     -0.001360      0.050080
Li	      6.31563      8.47850     10.37887        -0.015247      0.021767      0.030519
Li	      4.19871      2.14934      6.29370         0.002158     -0.011981     -0.001812
Li	      6.31610      4.11307      6.24422         0.036036     -0.052549     -0.036149
Li	      8.33068      6.39351     10.37719        -0.050416      0.003519     -0.030492
Li	      4.17212      4.29632      8.42191         0.033135     -0.016774      0.006254
Li	      6.18908      6.31763      8.44597        -0.001490     -0.024301      0.019386
Sc	      6.31421      0.03563      6.23225        -0.124346      0.088264     -0.041319
Cr	      6.28139      2.12027      8.37233        -0.091802      0.020402     -0.058005
Cr	      4.20127      4.18756      4.20570         0.052707     -0.036511     -0.092242
Cr	     10.44206      8.42318     10.47180         0.027797     -0.007824     -0.086257
Cr	      6.32808      8.40279      6.42472         0.021021     -0.064134      0.211100
Fe	      8.35457      4.27436      8.32149        -0.020836     -0.049194      0.115935
Fe	      2.20626      2.00143      4.19114        -0.011757      0.021987     -0.116654
Ni	      2.09101      8.41522      6.28191        -0.031934      0.003324      0.035823
Ni	      4.19215      6.28594      6.38605         0.037875     -0.016608     -0.091691
O	      4.19720      6.29307      8.34428         0.054896     -0.034265      0.060856
O	      2.00462      2.21787      2.12979        -0.008124     -0.063031     -0.000585
O	      4.11316      4.30018      2.15926         0.068706      0.008488      0.002301
O	      4.12944      2.21322      4.17820         0.147374      0.018799      0.010457
O	      6.18238      4.27266      4.20320        -0.003708     -0.121294      0.001473
O	      6.38254      2.06689      6.37340        -0.100660     -0.006719     -0.024246
O	      8.43741      4.15121      6.38149         0.031599      0.025515     -0.150853
O	      2.07739      4.15172      4.21177         0.019009      0.013638      0.078580
O	      4.26694      6.32008      4.15162        -0.009631     -0.009657      0.040256
O	      4.08106      4.24067      6.19706        -0.059050     -0.067374      0.064065
O	      6.24901      6.49145      6.17273         0.038986      0.123668      0.169785
O	      6.35789      4.13017      8.47659        -0.124061      0.014839      0.003103
O	      8.49732      6.18884      8.38158         0.035089      0.219250     -0.019566
O	      2.10342      6.17083      6.26218        -0.027060     -0.100242      0.040954
O	      4.23398      8.39784      6.23161         0.147868      0.043319      0.034265
O	      6.30749      8.38486      8.20725         0.012586      0.002740     -0.196294
O	      6.30911      6.17351     10.49621        -0.035678      0.018672      0.004522
O	      8.53620      8.36863     10.54095        -0.046224      0.029930     -0.098352
