# total energy = -231.92941017 eV
 
CRYSTAL
PRIMVEC
-0.009041 6.264766 6.327718 
6.271409 0.003094 6.315800 
4.191184 4.179004 -0.008483 
PRIMCOORD
36 1
Li	     10.21684      4.11564      6.40201         0.023206      0.028569      0.047455
Li	      8.39621      2.24040      6.31602        -0.035395      0.077856     -0.001701
Li	      4.15796      2.11025      2.06899        -0.013303      0.017877      0.007116
Li	      8.33979      4.23927      4.45099        -0.041182     -0.002361      0.015625
Li	      8.38145      4.14868      8.23991        -0.003960     -0.010116      0.029208
Li	      8.35673      6.17452      6.30409         0.005617     -0.139406     -0.025119
Li	      6.44089      4.20134      6.30222        -0.024432      0.005240     -0.053452
Li	      6.26678      8.32998      6.29262         0.003153     -0.022706     -0.007300
Li	      4.20052      4.14049      8.37703        -0.026161      0.014516     -0.008228
Sc	      2.11595      6.23176      8.35695        -0.015473     -0.011202      0.104335
Cr	      6.27684      2.09199      4.28801        -0.051519     -0.015212      0.054636
Cr	      4.16867      4.15838      4.22239         0.064857     -0.168851     -0.016798
Cr	      4.23469      6.23940      6.31119         0.182994     -0.042517      0.066381
Cr	      6.28976      6.27165      8.38105         0.039854     -0.016753     -0.033787
Fe	      6.24603      2.13582      8.21141        -0.042298     -0.020845      0.105016
Fe	     10.38890      8.39040     10.56343        -0.027991      0.064464      0.024341
Fe	      8.32867      6.25908     10.55221         0.111778     -0.052272      0.049186
Co	      2.18254      2.11232      4.22190        -0.113336     -0.288809     -0.007061
O	      8.35203      4.19061      6.31888        -0.027907     -0.003839      0.035129
O	      1.98595      2.03633      2.18667         0.148245      0.175442      0.382454
O	      4.22235      4.26762      2.16840        -0.014344     -0.005376      0.066249
O	      4.24326      2.18601      4.22804         0.014487      0.191067     -0.049914
O	      6.21343      4.11486      4.17201        -0.119326      0.033327     -0.048193
O	      6.25508      2.09195      6.32431         0.012359     -0.015751     -0.257895
O	      2.09787      4.21872      4.24419         0.008677     -0.053965     -0.039636
O	      4.14891      6.26346      4.23117         0.162893     -0.049277     -0.036727
O	      4.18757      4.33237      6.19364        -0.022483      0.166578     -0.011917
O	      6.18743      6.28624      6.36720        -0.062173      0.065834     -0.289373
O	      6.23835      4.18086      8.57186         0.014284      0.084029     -0.036294
O	      8.35755      6.28122      8.51746        -0.018587      0.017968      0.001807
O	      2.22977      6.23611      6.28767         0.020093      0.011756     -0.074607
O	      4.19805      8.23557      6.18563        -0.013658     -0.093955      0.054195
O	      4.25013      6.26895      8.27723         0.050875      0.002211     -0.024449
O	      6.28561      8.29457      8.55563        -0.018691     -0.064500      0.056414
O	      6.30774      6.26513     10.45268        -0.062321      0.108143     -0.058202
O	      8.34158      8.27086     10.57326        -0.108833      0.012833     -0.018894
