# total energy = -230.19394325 eV
 
CRYSTAL
PRIMVEC
-0.001886 6.288703 6.297921 
6.338191 -0.016052 6.312106 
4.220557 4.197022 -0.005837 
PRIMCOORD
36 1
Li	      2.14895      0.06600      2.19132        -0.057902      0.108933     -0.060082
Li	      4.11241      2.07595      2.21226        -0.171437      0.067212     -0.076418
Li	      4.13870      0.07453      4.14472        -0.024386      0.008211      0.069688
Li	      6.32855      2.11602      8.36234         0.088200     -0.043753     -0.082875
Li	      8.43785      4.16338      8.35520         0.094189     -0.153282     -0.054041
Li	      6.41629      6.17688      4.17673         0.028377     -0.026961      0.017670
Li	      8.43433      6.19105      6.35633         0.054043     -0.085429     -0.025737
Li	      6.34417      4.28265      6.33890         0.017309     -0.019192     -0.100205
Li	      6.30356      6.17520      8.35339         0.008027      0.054022     -0.005303
Sc	      6.39359      8.29682      6.43937         0.001291      0.011301     -0.071560
Cr	      4.20754      4.20279      0.09700        -0.090033      0.075696      0.084069
Cr	      4.24569      4.18550      4.07197         0.047115     -0.063521     -0.124818
Cr	      6.35369      4.17358     10.45263        -0.041086      0.015910      0.116138
Cr	      4.24666      6.26995      6.35172        -0.067035      0.032571     -0.160781
Fe	      8.38719      2.15521      6.43226        -0.033688     -0.057627     -0.213098
Fe	      6.23507      2.16625      4.13921         0.086162     -0.093502      0.372896
Fe	      8.42761      6.28062     10.32967         0.029475      0.049749      0.553963
Cu	      4.29489      4.20734      8.41364        -0.017480     -0.045287      0.033237
O	      6.27284      4.18181      8.53344        -0.293076      0.088832     -0.072707
O	      2.09991      2.09768      1.89555         0.023229     -0.035200      0.899776
O	      4.22524      4.19518      2.07789        -0.011318     -0.009540      0.050199
O	      4.28576      2.17810      4.17769        -0.040873      0.038862     -0.019323
O	      6.23933      4.11958      4.18481        -0.025806      0.041073     -0.003984
O	      6.41013      1.95907      6.21383        -0.272077      0.060500     -0.065647
O	      8.57525      4.06970      6.31990         0.011169      0.435203     -0.048090
O	      2.07899      4.27343      4.20742         0.058043      0.020103      0.041421
O	      4.14551      6.32208      4.25478        -0.013735     -0.010869      0.121873
O	      4.18472      4.29261      6.09436         0.030428     -0.000655      0.120769
O	      6.22936      6.31448      6.27311        -0.012216      0.015386      0.065871
O	      8.44438      6.40425      8.46809         0.023390      0.136055     -0.380650
O	      2.11489      6.33104      6.26323         0.067471     -0.287165     -0.042164
O	      4.23558      8.37619      6.25288         0.174428     -0.077274     -0.144548
O	      4.22033      6.19166      8.29203         0.126552     -0.186235      0.076944
O	      6.46683      8.33859      8.49149         0.127386     -0.015251     -0.152154
O	      6.40764      6.22016     10.64535         0.015815      0.010917     -0.085064
O	      8.50180      8.33206     10.74428         0.060049     -0.059791     -0.635264
