# total energy = -234.50717526 eV
 
CRYSTAL
PRIMVEC
0.013646 6.293441 6.284547 
6.260691 0.006883 6.291366 
4.176759 4.203079 0.001734 
PRIMCOORD
36 1
Li	      4.21980     10.47804      6.31847         0.018159     -0.054263      0.025862
Li	      6.26830     10.45987      8.34188        -0.024187      0.013625     -0.011970
Li	      6.24003      2.18137      8.38876        -0.045347      0.074578      0.079362
Li	      8.26766      4.21883      8.40088        -0.077967     -0.002426      0.079437
Li	      6.25457      4.23932      6.40283        -0.016690      0.055399      0.046251
Li	      6.32323      4.21562     10.40293         0.029503      0.035558     -0.055483
Li	      6.25154      8.43021      6.30054        -0.008040      0.016932     -0.087955
Li	      4.18835      6.30620      6.31600        -0.006260      0.050173     -0.061238
Li	      6.25761      6.21448      8.35334         0.014144     -0.068309     -0.018662
Sc	      2.05405      2.08175      0.13883         0.050046      0.011597      0.023433
Cr	      4.21675      6.29123     10.46364         0.031085     -0.037807      0.122666
Cr	      6.25074      2.11220      4.18342         0.093268     -0.011331      0.078393
Cr	      2.06722      6.24698      4.18842         0.120788     -0.118657     -0.068943
Cr	      4.24375      4.24396      8.30207         0.026548     -0.079495     -0.040174
Fe	      4.29564      8.41442      8.24850        -0.103680      0.002221      0.052695
Fe	      6.16267      6.36609      4.21629        -0.078116      0.022374     -0.175693
Fe	      4.18916      4.23246      4.17489        -0.072825      0.107925      0.102727
Fe	      8.34409      6.25389      6.43421        -0.016272     -0.058519     -0.064909
O	      2.17020      2.09337      2.18714        -0.048899     -0.026127     -0.075096
O	      4.20455      4.08771      2.24210         0.063382     -0.023811     -0.141981
O	      4.20804      2.05148      4.18774         0.076141     -0.065108     -0.020734
O	      6.29506      4.20303      4.19073         0.108931     -0.131592     -0.002383
O	      6.20869      2.09585      6.20401         0.034356     -0.003260     -0.020212
O	      8.35976      4.23538      6.19232        -0.004725     -0.062091     -0.003424
O	      2.15498      4.21593      4.18478        -0.091739      0.126097     -0.019498
O	      4.16528      6.20845      4.20100        -0.098992      0.104344     -0.023264
O	      4.18999      4.08315      6.26838         0.005382      0.105232      0.069010
O	      6.37119      6.30912      6.11062        -0.046770     -0.041401      0.259729
O	      6.16816      4.21014      8.40217        -0.041892      0.020699     -0.006604
O	      8.35538      6.39022      8.39436        -0.032240      0.014132      0.124393
O	      2.09378      6.35219      6.13546        -0.009025      0.011658      0.098535
O	      4.14128      8.39555      6.36319         0.007428     -0.019595     -0.112706
O	      4.20056      6.29336      8.47540         0.007343     -0.026547     -0.071630
O	      6.28467      8.41045      8.46247         0.158471      0.013344     -0.017163
O	      6.27646      6.41355     10.47493        -0.051506      0.008928     -0.052061
O	      8.27858      8.42038     10.43037         0.030198      0.035525     -0.010707
