# total energy = -226.46396205 eV
 
CRYSTAL
PRIMVEC
0.033550 6.316370 6.270278 
6.301046 0.011292 6.292679 
4.192245 4.217352 0.016098 
PRIMCOORD
36 1
Li	      4.32088     10.44076      6.41895         0.144553     -0.086746     -0.015030
Li	      2.10334      2.10182      0.18987         0.090008     -0.105940      0.042628
Li	      4.09536      2.28067      2.01834        -0.014766     -0.032379     -0.049385
Li	      0.10943      1.99949      2.07607         0.020127     -0.032087      0.072911
Li	      2.20887      4.10849      2.05092         0.021931     -0.063766      0.093863
Li	      2.07193      2.16012      4.06993        -0.047855      0.059413     -0.079225
Li	      4.18415      4.20467      4.04554        -0.043846      0.000816     -0.061244
Li	      2.12941      6.29200      4.20303         0.068388     -0.022744      0.075552
Li	      2.04454      4.30988      6.26022        -0.042937      0.109947     -0.056755
Sc	      8.35533      4.23909      4.23651        -0.080341      0.007532     -0.241395
Mn	      8.39646      6.32901      6.33041        -0.038889      0.007745      0.060830
Cr	      6.31709      2.09786      4.25308         0.003351     -0.016448     -0.085423
Cr	      0.17480      4.16028      4.19728         0.181656     -0.083166     -0.174594
Cr	      4.19133      6.35980      6.26554        -0.137440      0.238604     -0.099353
Cr	      4.22868      4.20222      8.35011         0.043468     -0.026730      0.066800
Co	      6.29495      4.20819      6.32144         0.047601      0.150691      0.364073
Cu	      1.96866      0.09614      2.00611         0.210898     -0.171947      0.309146
Ni	      6.33665      6.33454      8.36630        -0.034281     -0.009312      0.052583
O	      2.13744      1.98782      2.14236         0.016733      0.266314      0.019354
O	      4.26344      4.21864      2.09295        -0.271299     -0.020668      0.001339
O	      4.30317      2.09031      4.36542         0.013673     -0.031247      0.077491
O	      6.28390      4.09887      4.35925         0.056941     -0.108450     -1.216966
O	      6.24519      2.25566      6.24705        -0.070394     -0.277073     -0.084685
O	      8.23516      4.22705      6.29461        -0.080203     -0.020330      0.083078
O	      1.95466      4.24841      4.13927        -0.130974     -0.000145     -0.038719
O	      4.17924      6.52992      4.27562         0.004605      0.047139      0.018243
O	      4.32391      4.30062      6.34018         0.049445     -0.071190      0.045606
O	      6.28517      6.17793      6.30783         0.132971      0.286626     -0.173366
O	      6.23735      4.26536      8.35416        -0.016670     -0.109135      1.002405
O	      8.37247      6.43577      8.23478         0.097922      0.037725     -0.089035
O	      2.24996      6.30025      6.34090        -0.082959     -0.009494     -0.217763
O	      4.25408      8.35000      6.13750        -0.011201     -0.013474      0.098634
O	      4.23267      6.25188      8.33119         0.007473     -0.043688      0.084345
O	      6.40237      8.42948      8.50493         0.003392     -0.031308      0.048204
O	      6.30213      6.27773     10.46967        -0.056907      0.117833      0.081185
O	      8.43038      8.44684     10.38294        -0.054174      0.057081     -0.015333
