# total energy = -225.37402994 eV
 
CRYSTAL
PRIMVEC
0.016141 6.222880 6.192075 
6.340781 0.014785 6.193663 
4.230740 4.153288 0.006251 
PRIMCOORD
36 1
Li	      6.32577      6.24334     12.34006        -0.024264      0.023386      0.007291
Li	      8.44528      8.34672     12.30069        -0.006209      0.013705      0.003074
Li	      4.27383      8.34720      8.22638         0.007591      0.068974     -0.062446
Li	      6.34367      2.07836      4.22603         0.001390      0.007429      0.075950
Li	      4.20591      4.16013      4.17300        -0.013842     -0.011855     -0.036991
Li	      6.37067      4.10372      6.14834         0.001714     -0.035919      0.011568
Li	      4.24245      8.35951      4.20129        -0.034896      0.031631     -0.002396
Li	      2.07368      6.15430      4.23894        -0.078678     -0.106584      0.009162
Li	      2.10547      4.17406      6.14770        -0.040242      0.006658     -0.029797
Sc	      8.45817      8.28769      8.29087        -0.019794     -0.117831      0.103498
Mn	      0.01585      2.06056      2.05205         0.038851      0.020754     -0.007041
Cr	      6.33310     10.35668      8.24093         0.012466     -0.003778     -0.061044
Cr	      2.15943      2.08810      4.14078         0.029151     -0.004355     -0.029719
Cr	      4.17780      6.30817      6.10623        -0.030705      0.168711     -0.039938
Cr	      6.30469      6.25871      8.28526         0.005254      0.000651      0.032055
Co	      2.14725      4.10972      2.03849         0.032138     -0.018666      0.061904
Ni	      8.46145      4.16326      4.22443         0.017571     -0.029361      0.017000
Ni	      4.27553      2.10014      6.17283        -0.043660      0.103500      0.060779
O	      2.14235      2.00889      2.13236         0.104617      0.086288     -0.028752
O	      4.32382      4.22872      2.06511        -0.008723     -0.017306      0.009746
O	      4.15669      1.93189      4.19503         0.001874      0.220362     -0.159782
O	      6.48938      4.20721      4.05717        -0.104094      0.007861      0.003159
O	      6.29552      2.10310      6.37301         0.117562     -0.019556      0.044572
O	      8.48078      4.21454      6.35246        -0.026458     -0.147800      0.256871
O	      2.17399      4.06434      3.91938        -0.000667      0.056789     -0.097017
O	      4.33886      6.23066      4.09673         0.034960     -0.021358      0.030493
O	      4.25225      4.26501      6.18267        -0.021972      0.107551     -0.007969
O	      6.24535      6.23736      6.19502        -0.078609     -0.020103      0.001974
O	      6.36924      4.18121      8.26647        -0.012370     -0.031689      0.014031
O	      8.32886      6.20475      8.28769        -0.067938     -0.037111      0.135445
O	      2.27985      6.20010      6.22696         0.097795      0.011491     -0.034658
O	      4.27955      8.10740      6.16590         0.008988     -0.139977     -0.043660
O	      4.23556      6.23921      8.15845        -0.014877     -0.013815     -0.121249
O	      6.38124      8.30236      8.25582         0.002916      0.018607     -0.040720
O	      6.18847      6.25773     10.23467         0.125135      0.009232      0.008148
O	      8.45616      8.48378     10.33191        -0.011972     -0.186518     -0.083539
