# total energy = -229.56909772 eV
 
CRYSTAL
PRIMVEC
0.048669 6.309325 6.177371 
6.364648 0.039897 6.186047 
4.254497 4.223861 0.014830 
PRIMCOORD
36 1
Li	      6.33206      0.16039      6.26545        -0.083995      0.017387     -0.034886
Li	      6.15913      4.27743      2.13565         0.011120      0.005432     -0.009725
Li	      4.24727      2.23472      2.14941        -0.022780     -0.032047      0.005595
Li	      6.28253      2.16157      4.24076         0.013183     -0.037018      0.001486
Li	      4.33605      6.17390      2.00590         0.001218      0.042358      0.008839
Li	      4.34132      4.21615      4.07587        -0.042457      0.088317      0.005709
Li	      4.46173      2.08727      6.13064         0.075223     -0.071467      0.007355
Li	      6.40248      4.10753      6.08886         0.051116     -0.021763      0.015599
Li	      2.15912      6.29961      4.15049         0.007907     -0.023606      0.006551
Sc	      8.50826      8.37947      8.27248         0.066635      0.182918     -0.107936
Mn	      0.04309      4.20739      4.12543         0.072409     -0.147900     -0.143543
Cr	      8.38796      2.09625      6.21916        -0.058743      0.303021      0.089995
Cr	      2.26165      4.21507      2.04927        -0.125389      0.006793     -0.295030
Cr	      2.15945      4.27769      6.15130         0.052019      0.032675      0.029527
Cr	      6.39880      6.34527      8.23520        -0.156577     -0.101692     -0.070173
Co	      8.40049      4.32985      4.19916        -0.178334     -0.218310     -0.239939
Co	      2.17942      2.12086      4.09750        -0.228955      0.149892     -0.103958
Cu	      4.27466      6.33709      6.17401         0.025096     -0.116062      0.172350
O	      4.16418      4.22816      2.08226         0.161734     -0.041591      0.086970
O	      2.17003      2.22267      2.08915        -0.003557     -0.047045     -0.025942
O	      4.09220      2.02401      4.17612         0.075801     -0.486814     -0.112074
O	      6.45684      4.43802      4.10983         0.542735     -0.002798      0.066090
O	      6.47070      2.13565      6.18751        -0.014319     -0.054162     -0.055747
O	      8.50231      4.11717      6.19105         0.062990     -0.139922      0.627710
O	      2.20615      4.12785      4.11710        -0.021822     -0.058612      0.066118
O	      4.45910      6.47983      4.15341         0.049116      0.026917     -0.190120
O	      4.16825      4.32433      6.18634        -0.006601     -0.134425      0.000455
O	      6.30546      6.47625      6.15631         0.089395      0.021899      0.130923
O	      6.43508      4.31291      8.30370         0.011743      0.081213      0.189806
O	      8.42561      6.30390      8.25242        -0.038055      0.020324      0.018605
O	      2.27018      6.32045      6.17269        -0.174643     -0.086697      0.000099
O	      4.32447      8.37667      6.10121        -0.011547      0.163665     -0.105504
O	      4.38819      6.27853      8.28379         0.156259      0.061363     -0.245763
O	      6.42918      8.35706      8.16450        -0.011999     -0.006276      0.055950
O	      6.30813      6.21314     10.22435        -0.359904      0.165227      0.051232
O	      8.47121      8.47156     10.36462         0.013976      0.458808      0.103376
