# total energy = -230.20579973 eV
 
CRYSTAL
PRIMVEC
0.017923 6.132992 6.240850 
6.279329 -0.011547 6.270545 
4.194276 4.116519 -0.015910 
PRIMCOORD
36 1
Li	     10.43324      4.19119      6.31680         0.007420      0.003388      0.017266
Li	      8.26680      2.03878      6.27271        -0.071751     -0.017974      0.033047
Li	     10.43976      6.08190      8.27892        -0.015355      0.032128     -0.024262
Li	      8.32082      4.25803      8.18627        -0.011905     -0.059580     -0.015603
Li	      4.20094      4.19289      4.11602         0.002082      0.015891     -0.001753
Li	      6.38810      4.06157      6.40412        -0.011960     -0.004474      0.067748
Li	      8.36943      6.13815     10.41524        -0.072916     -0.023689      0.010182
Li	      4.13417      6.11650      6.21680         0.012778     -0.034187      0.025481
Li	      6.40904      6.00438      8.35842         0.024731      0.008709      0.027362
Sc	      4.17598      8.22766      8.22813        -0.100373      0.059738     -0.055171
Mn	      6.24841      6.11825      4.17586        -0.151927      0.103403     -0.001062
Cr	      6.28750      2.00731      4.25732         0.012470     -0.002006      0.053658
Cr	     10.47259      8.20759     10.42958         0.024979     -0.023376     -0.048431
Cr	      2.14510      4.12634      6.23279         0.018379     -0.020745     -0.023497
Cr	      4.24765      4.04803      8.30556         0.154244     -0.083967     -0.036971
Co	      2.08778     -0.00207      2.08353        -0.105013      0.130883     -0.078602
Co	      4.21190      2.02666      6.25061         0.089291     -0.069397      0.129226
Ni	      8.40610      4.07423      4.24498         0.028827      0.013275     -0.023512
O	      2.10333      1.94105      2.23062        -0.004097     -0.022133      0.044319
O	      4.33365      4.08214      2.11073         0.098648      0.010940     -0.034165
O	      4.18206      2.03731      4.21633        -0.070755      0.140245     -0.016209
O	      6.31265      4.14092      4.04244        -0.095254      0.020441     -0.043191
O	      6.15809      2.08272      6.15770        -0.002997     -0.005857     -0.068188
O	      8.36676      4.21370      6.23706         0.034906      0.080782      0.050647
O	      2.03064      3.97847      4.22728         0.013011     -0.078857      0.042984
O	      4.36256      6.22036      4.20320         0.194351     -0.063277      0.015126
O	      4.13487      4.01295      6.30283        -0.044400     -0.020251      0.021288
O	      6.42079      6.19438      6.09122        -0.027033     -0.000219     -0.042010
O	      6.20005      4.08411      8.46931        -0.039109     -0.024806      0.000020
O	      8.37618      6.20392      8.15711         0.000978      0.052037      0.021458
O	      2.13771      6.08439      6.38804        -0.022371     -0.017860      0.032538
O	      4.30002      8.19276      6.19848         0.016410     -0.038530     -0.045278
O	      4.09070      6.08670      8.36942        -0.032841     -0.016523     -0.062571
O	      6.33624      8.26488      8.31796         0.040530      0.051950      0.057602
O	      6.29309      6.15621     10.38336         0.103538     -0.007945      0.006851
O	      8.36209      8.14666     10.36395         0.002483     -0.088154     -0.036329
