# total energy = -232.95279342 eV
 
CRYSTAL
PRIMVEC
0.028335 6.142009 6.251786 
6.392435 0.049736 6.230631 
4.292833 4.111636 0.001953 
PRIMCOORD
36 1
Li	      0.05704      6.08793      6.22469         0.032737     -0.007490      0.019068
Li	      2.18066      6.14061      8.21640        -0.021370     -0.011638      0.014133
Li	      4.41352      6.13211     10.39605         0.055304     -0.017331      0.081705
Li	      2.19364      4.12267      2.07557        -0.010794     -0.012926      0.005517
Li	      8.42068      6.14090      6.29952        -0.011799      0.024485      0.026777
Li	      6.41847      4.23431     10.37590        -0.043371      0.010976     -0.063896
Li	      6.44872      8.17787      6.27189         0.025523     -0.016616      0.049523
Li	      4.31422      6.22285      6.25867         0.017204     -0.062949     -0.015000
Li	      6.39153      6.16099      8.32618         0.025908      0.042305     -0.042994
Sc	      6.39423      8.18448     10.33985         0.053771      0.022938     -0.149448
Mn	      2.20250      2.08257      0.04920        -0.092753     -0.111998      0.021198
Cr	      4.28541      6.11811      2.09444         0.091700     -0.031085      0.035456
Cr	      6.42970      4.18771      6.23666        -0.117317      0.116569      0.038230
Cr	      2.15753      6.11208      4.20072        -0.049240      0.025601     -0.080180
Cr	      4.25885      4.19872      8.22468        -0.219356     -0.016404      0.077459
Co	      4.32751      8.16014      8.30672        -0.114293      0.071032     -0.177654
Co	      2.11384      2.09936      4.16282         0.023561     -0.094297      0.148822
Co	      4.25481      4.10738      4.18714        -0.064960      0.145261      0.069491
O	      2.02472      2.05561      2.19691        -0.134068      0.022939      0.017143
O	      4.25358      4.08246      2.25817         0.010103     -0.140009     -0.043153
O	      4.27088      2.15522      4.06496        -0.164458     -0.009229     -0.108128
O	      6.21451      4.18185      4.22446         0.007626      0.137988     -0.062852
O	      6.55292      2.13417      6.28080        -0.002029     -0.055913      0.077454
O	      8.44641      4.06024      6.22762         0.037111      0.042177     -0.057544
O	      2.31990      4.10091      4.20529         0.015730     -0.113972     -0.006420
O	      4.21236      6.05431      4.10636         0.112864     -0.074154     -0.067404
O	      4.40638      4.10223      6.21656         0.031006      0.041867      0.007943
O	      6.44428      6.13859      6.08777        -0.003968      0.057431     -0.095626
O	      6.30076      4.08322      8.24721         0.024460     -0.082030     -0.055935
O	      8.66776      6.29304      8.37505         0.031212     -0.155071      0.007899
O	      2.18487      6.29346      6.17061         0.045649      0.080700      0.080014
O	      4.16192      8.23288      6.41127         0.049053      0.062870      0.279466
O	      4.34499      6.21526      8.40517        -0.021042      0.115947     -0.090131
O	      6.52623      8.24334      8.29665         0.335863      0.026987      0.059086
O	      6.54902      6.17924     10.42161         0.002920     -0.055040      0.005761
O	      8.53308      8.20115     10.31449         0.041514      0.020079     -0.005781
