# total energy = -223.11572640 eV
 
CRYSTAL
PRIMVEC
0.015168 6.258444 6.144709 
6.441460 0.010819 6.148671 
4.293889 4.174696 0.006843 
PRIMCOORD
36 1
Li	      0.15015      6.27183      6.25409         0.024375     -0.004248     -0.028999
Li	      2.04817      0.05847      1.94717         0.018256     -0.028166      0.057918
Li	      4.29407      6.20808      2.04063        -0.018054      0.025599      0.016754
Li	      4.25722      4.33791      4.16494         0.061545     -0.027396      0.036186
Li	      8.55655      6.33882      6.21867        -0.011302      0.046700     -0.081159
Li	      6.43771      4.16106      6.17438        -0.084605     -0.016227      0.031684
Li	      2.31342      6.15373      4.19449        -0.015743      0.041127     -0.064352
Li	      2.26701      4.26904      6.06350         0.026150      0.001464     -0.022141
Li	      4.14955      6.21260      6.03016        -0.001675     -0.029444     -0.009394
Sc	      6.44708      2.14911      4.23149        -0.034661     -0.011515      0.083215
Mn	      4.30855      8.39964      8.13037         0.011318      0.085705      0.046795
Cr	      8.58882      4.19468      4.17725        -0.005953      0.032567     -0.001159
Cr	      4.32783      8.30306      4.10583         0.005334     -0.041826      0.039913
Cr	      4.27771      4.18279      8.06458        -0.009906      0.026915     -0.032462
Cr	      6.46205      6.25797      8.05358         0.004818     -0.075960     -0.201858
Cu	      2.23453      4.21028      2.03501         0.083804      0.104713     -0.079245
Ni	      2.12255      2.03253      0.05599        -0.011587      0.033154     -0.036958
Ni	      6.38713      6.24206      4.16791         0.021498     -0.049812      0.016623
O	      2.15780      6.40294      6.13331        -0.006485     -0.221428      0.032207
O	      2.40405      2.10447      2.09548         0.085368     -0.101503      0.039809
O	      4.37758      3.96260      2.10969        -0.024623     -0.059947     -0.017682
O	      4.33387      2.01113      4.00387         0.046538     -0.013553     -0.029071
O	      6.59627      4.17459      4.11239         0.055877     -0.085358     -0.006896
O	      6.56876      2.04191      6.21210        -0.112691      0.013424     -0.040796
O	      8.57348      4.03147      6.18336         0.009242      0.118351     -0.010865
O	      2.00034      4.15023      3.99586         0.039409      0.088389      0.016935
O	      4.35660      6.35172      4.02867        -0.098495     -0.009391     -0.007924
O	      4.27064      4.17664      6.18237        -0.008089     -0.010156      0.041295
O	      6.43882      6.25462      6.24166        -0.024395     -0.020455      0.248146
O	      6.26355      4.26675      8.25055        -0.025130      0.076420     -0.102735
O	      8.36600      6.33902      8.22131        -0.175524      0.005971      0.033717
O	      4.15627      8.33589      6.19228         0.181149      0.018946      0.065669
O	      4.45301      6.28788      8.25971         0.018318      0.060177      0.027677
O	      6.41203      8.25946      8.16958        -0.039764     -0.023305     -0.010057
O	      6.33118      6.22367     10.13099         0.000264      0.028490     -0.006304
O	      8.62637      8.42905     10.18349         0.015418      0.021579     -0.044488
