# total energy = -223.68249440 eV
 
CRYSTAL
PRIMVEC
-0.006658 6.183940 6.230405 
6.348096 0.010886 6.213035 
4.250963 4.129653 -0.011306 
PRIMCOORD
36 1
Li	      8.38683      2.17225      6.26426        -0.039505     -0.001532      0.049952
Li	      2.18892      0.02887      2.11823        -0.094527      0.094231     -0.065357
Li	      8.39779      4.15864      4.12466         0.015137      0.018991      0.089293
Li	      8.45514      4.14436      8.19697         0.062697      0.015063      0.021964
Li	      4.33074      4.09161      4.05845         0.023968      0.054993     -0.048073
Li	      8.42750      6.13647      6.27729         0.010111     -0.046255      0.037788
Li	      6.53118      4.13358      6.19309         0.095844      0.033315     -0.036402
Li	      4.22579      6.15959      6.31331        -0.017814      0.028340     -0.132521
Li	      6.29857      6.15711      8.27308         0.042972     -0.046421      0.007810
Sc	     10.46066      4.14927      6.25767         0.056436      0.037449      0.011540
Mn	      6.39365      6.12111      4.13787        -0.115415      0.043162      0.073817
Cr	      6.34435      2.14832      4.12139         0.131107     -0.016612      0.234169
Cr	      6.33024      2.09092      8.26570        -0.135540     -0.013685      0.072796
Cr	     10.54009      8.28397     10.35186         0.149471     -0.010642      0.090024
Cr	      2.21976      4.09905      6.25363        -0.261902      0.157706     -0.441165
Cu	      4.22538      8.14521      8.27809         0.048365      0.288806     -0.059980
Cu	      4.23978      4.19473      8.27788         0.115555     -0.081155     -0.022823
Ni	      2.13678      6.17237      4.11932         0.082168     -0.195774      0.108227
O	      4.03942      4.12386      6.28848         0.128656     -0.004701      0.167477
O	      4.24223      6.18836      8.28436         0.054478     -0.060412     -0.001134
O	      1.98165      2.08115      2.22931         0.408900     -0.100764     -0.123197
O	      4.22654      4.20361      2.07044         0.006124     -0.170115      0.018355
O	      4.34376      2.06583      3.97918         0.133161      0.006043     -0.038049
O	      6.34445      4.15736      4.18546         0.005191     -0.152426     -0.050297
O	      6.37616      2.08408      6.17881        -0.033295      0.045303     -0.087396
O	      8.50877      4.12676      6.21742        -0.033787     -0.007190     -0.036376
O	      1.99888      4.04282      4.25350        -0.038473     -0.071146      0.043354
O	      4.19905      6.28514      4.06423         0.030979      0.002699     -0.000579
O	      6.36716      6.31838      6.07967         0.022386     -0.023525      0.159229
O	      6.27777      4.10404      8.38291        -0.082700      0.075598     -0.086205
O	      8.59875      6.27546      8.33861        -0.068213      0.078715     -0.380332
O	      2.07531      5.99019      6.13754         0.016448     -0.151422      0.360186
O	      4.36652      8.20823      6.22242         0.015305     -0.066685      0.145152
O	      6.48700      8.25553      8.28062        -0.385662     -0.058746      0.051804
O	      6.45291      6.21216     10.35758        -0.271994      0.001667     -0.020134
O	      8.47871      8.24894     10.30474        -0.076632      0.297127     -0.112917
