# total energy = -230.42399286 eV
 
CRYSTAL
PRIMVEC
0.022654 6.204855 6.315456 
6.347481 0.015803 6.321670 
4.243776 4.152629 -0.001180 
PRIMCOORD
36 1
Li	      4.29476     10.30599      6.36115         0.011858     -0.020296      0.010639
Li	      4.29330      8.23963      8.34336         0.009146      0.026537     -0.068603
Li	     10.57003      6.22507      8.42481        -0.030891      0.003054      0.009112
Li	      8.41357      6.31401      6.41660        -0.022705      0.002563      0.050026
Li	      4.26920      8.30174      4.27185        -0.026981     -0.005973      0.017552
Li	      6.31119      8.19848      6.43256        -0.067147     -0.004872     -0.015731
Li	      4.29283      6.20664      6.35953        -0.005929     -0.001124      0.025866
Li	      4.21440      4.17910      8.26633         0.021987     -0.024663     -0.050948
Li	      6.35326      6.25084      8.33007         0.026693     -0.041428     -0.063787
Sc	      6.36757      8.27714     10.40454         0.156535      0.198408      0.009041
Mn	      4.22669      4.15876      4.25139         0.005721     -0.124309      0.011079
Cr	      2.26120      8.22274      6.34465         0.206246     -0.073756      0.157737
Cr	      4.31332      6.22785     10.47702         0.085742     -0.132987      0.380312
Cr	      6.35077      4.19098      6.43516         0.092842      0.283528     -0.076382
Cr	      8.47623      6.22424     10.48240        -0.159859     -0.294462      0.043716
Fe	      2.17332      4.17350      2.11704        -0.112471     -0.024023     -0.142264
Co	      6.33171      6.23594      4.21905        -0.191198      0.352460     -0.157745
Cu	      2.15388      6.18345      8.34842         0.035554     -0.081811     -0.075162
O	      4.16394      6.20393      8.55830         0.021592     -0.023897     -0.158938
O	      2.09392      2.07418      2.08917         0.043161     -0.034277     -0.340670
O	      4.21819      4.13217      2.26616         0.008612     -0.018185      0.141885
O	      4.29814      2.07026      4.26354        -0.270861      0.153118      0.006408
O	      6.49867      4.21618      4.38647         0.101567     -0.626869      0.031594
O	      6.53242      2.28440      6.26996         0.059057     -0.246198     -0.080835
O	      8.44852      4.06636      6.35087         0.003353      0.030756     -0.113582
O	      2.03794      4.15703      4.14413         0.084909      0.280004      0.107874
O	      4.10145      6.08824      4.23242         0.456361      0.111774     -0.011139
O	      4.39579      4.13635      6.21228        -0.034612     -0.031145     -0.075793
O	      6.37698      6.07570      6.21048        -0.015340      0.108379      0.523835
O	      6.41892      4.17082      8.24849         0.030726     -0.017759      0.160048
O	      8.48749      6.13593      8.49721        -0.036218      0.159148     -0.080607
O	      2.04713      6.38919      6.16923        -0.078779      0.002255     -0.074640
O	      4.07291      8.30655      6.34160        -0.282666     -0.039337     -0.018829
O	      6.39173      8.36770      8.39174         0.037380     -0.021089      0.009922
O	      6.36454      6.25778     10.51838        -0.161027     -0.014251     -0.054233
O	      8.52061      8.29799     10.63360        -0.002357      0.190722     -0.036760
