# total energy = -98.64169316 eV
 
CRYSTAL
PRIMVEC
0.000708 2.085321 2.094070 
10.028554 -4.775163 4.797785 
2.074233 4.161098 -2.083756 
PRIMCOORD
16 1
Li	      2.62484      3.83002     -1.75193         0.012802     -0.038102      0.036251
Li	      2.60708      1.89207      0.20124         0.030989      0.007040     -0.000351
Li	      4.26792      4.12642      0.03760        -0.029156     -0.008528      0.000590
Li	      4.24979      2.18753      1.99114        -0.011275      0.039611     -0.037254
Ti	      7.22952     -0.40424      2.49575        -0.360187      0.128597     -0.124839
Ti	      7.60088     -2.51590      4.62896         0.356825     -0.120945      0.119214
Ni	      4.35808      0.06492      4.11688         0.323550     -0.046708      0.046113
Ni	     10.47221     -0.89819      5.09959        -0.325552      0.049276     -0.049113
O	      7.48609      1.51320      2.67591        -0.001949     -0.132046      0.131748
O	      7.41506     -0.41735      4.60914         0.003527      0.001973      0.002824
O	      9.41920     -0.27181      2.36509         0.005132      0.125366     -0.130935
O	      9.43668     -2.48002      4.58820        -0.545529     -0.084638      0.083060
O	      2.17589      4.08590      0.07764         0.517736      0.057245     -0.064501
O	      2.40068      1.97103      2.20856        -0.000140      0.001300      0.001783
O	      4.69953      1.93089      0.16242        -0.520166     -0.058283      0.063519
O	      5.39387     -0.43907      2.53494         0.543394      0.078841     -0.078109
