# total energy = -229.30788446 eV
 
CRYSTAL
PRIMVEC
0.001027 6.233309 6.371007 
6.241474 -0.001949 6.373890 
4.156605 4.153143 0.002865 
PRIMCOORD
36 1
Li	      8.25549      2.08794      6.43574        -0.033414      0.054278      0.064403
Li	      6.18193      4.14436      2.10497        -0.063561     -0.007004      0.050330
Li	      4.13468      2.12969      2.14751        -0.041069      0.056660      0.070336
Li	      4.22089      6.18736      2.21068        -0.008319      0.004012      0.021353
Li	      1.97263      2.10062      4.13832        -0.005925     -0.014894     -0.112948
Li	      4.16992      4.25157      4.15378         0.028841      0.017603     -0.077173
Li	      6.27036      4.10513      6.38324         0.046920     -0.030950      0.002820
Li	      2.16659      6.18817      4.26012         0.008253     -0.036946     -0.007252
Li	      4.14372      4.20879      8.52205         0.039245     -0.014106      0.001642
Sc	      4.18018      2.15606      6.37018         0.036100     -0.039625      0.065666
Mn	      6.28630      8.32766     10.59936        -0.026430      0.120147      0.023993
Cr	      8.27431      4.15185      4.21972        -0.087462      0.038976      0.011113
Cr	      4.16622      8.24057      4.23713        -0.060959     -0.069150     -0.120381
Cr	      4.10433      6.22568      6.39957         0.040296      0.016528      0.029272
Cr	      6.23374      6.21895      8.51496         0.112521     -0.108634     -0.006834
Fe	      2.14354      4.07218      2.16083        -0.070751      0.145496     -0.186328
Cu	      2.07753      4.19680      6.37049         0.068751     -0.057519     -0.075593
Ni	      4.20484      4.15016      0.06094        -0.044024      0.043172      0.040877
O	      2.07733      2.27322      2.11625        -0.041777     -0.610860     -0.016666
O	      4.04532      4.18568      2.07676         0.404801      0.014714      0.066476
O	      4.31569      2.01051      4.26458         0.040342      0.016875     -0.016218
O	      6.31039      3.99290      4.20568        -0.014649     -0.054431      0.027640
O	      6.23996      2.05627      6.19757        -0.008925      0.100447     -0.083681
O	      8.34315      4.19299      6.28058        -0.117016      0.006018     -0.081398
O	      1.96686      4.13154      4.11561         0.053221      0.022130      0.452079
O	      4.13973      6.30151      4.39691         0.021543     -0.025940      0.053654
O	      4.09210      4.21286      6.39102         0.049314      0.058308      0.036616
O	      6.18257      6.28941      6.49638        -0.060731     -0.041029     -0.018181
O	      6.28852      4.18449      8.58687        -0.215852      0.076109      0.035317
O	      8.26016      6.04446      8.45585        -0.084286      0.332677     -0.060117
O	      2.11183      6.16309      6.42973         0.101095      0.031630     -0.035563
O	      4.23334      8.28059      6.25534        -0.037239     -0.107261      0.019874
O	      4.24715      6.24772      8.51404        -0.057904      0.026042     -0.014438
O	      6.28297      8.19867      8.70883         0.009323      0.066097     -0.146270
O	      6.17762      6.24464     10.57985         0.030105     -0.008203     -0.042257
O	      8.27530      8.38079     10.60994        -0.010375     -0.021367      0.027835
