# total energy = -227.88646322 eV
 
CRYSTAL
PRIMVEC
0.014104 6.169194 6.337985 
6.386904 0.008842 6.343080 
4.263059 4.121196 0.000817 
PRIMCOORD
36 1
Li	      2.15986      8.17175      6.31926         0.019896     -0.007779     -0.005390
Li	      4.29968      8.20412      8.46779         0.003707     -0.009949      0.048775
Li	      6.29003      2.16605      4.30985        -0.112771     -0.007304      0.026913
Li	      6.39448      2.05253      8.40696         0.028819     -0.027905     -0.036770
Li	      4.33103      4.07012      4.39783        -0.055376     -0.039017      0.057252
Li	      4.27334      2.19497      6.28907        -0.045454     -0.037535      0.024561
Li	      6.14522      4.00609      6.36734        -0.119274     -0.072042      0.086216
Li	      4.28558      6.08840      6.36423        -0.022402      0.025593      0.046972
Li	      4.28348      4.13345      8.32145        -0.030659      0.049311     -0.009747
Sc	      2.16594      4.04086      2.01631         0.016401     -0.021838     -0.079660
Mn	      8.45974      4.10144      4.23127        -0.041260      0.049593     -0.039863
Cr	      6.41737      0.10403      6.33278         0.020339      0.279715      0.071918
Cr	      0.02603      4.11595      4.21820         0.045734      0.001791      0.006207
Cr	      8.59156      6.23151     10.53083         0.028787      0.039006      0.090672
Cr	      6.38484      6.23624      8.41364        -0.053984      0.181450     -0.099136
Fe	      6.37888      6.06255      4.31390        -0.012447      0.123403      0.008110
Cu	      6.36340      4.11378      2.16522         0.008009     -0.078872      0.190003
Cu	      2.21951      4.13418      6.38648        -0.027976     -0.014747     -0.007767
O	      4.16076      4.14192      6.34318         0.143538     -0.009515     -0.014008
O	      6.40558      8.28791      8.35898        -0.020697     -0.174476      0.125072
O	      2.10832      1.98084      2.24209        -0.021021      0.226057      0.015051
O	      4.25113      4.10969      1.92204        -0.162492      0.003986     -0.057476
O	      4.11289      1.91343      4.27448         0.045478     -0.044913      0.011600
O	      6.32048      4.13863      4.35629        -0.034119     -0.140635     -0.100970
O	      6.42823      1.91935      6.32398         0.016121     -0.191052     -0.016641
O	      8.73707      4.07206      6.27123         0.064887     -0.021623     -0.035304
O	      2.09309      4.12737      4.19806        -0.076264      0.051028     -0.165453
O	      4.23891      6.26310      4.23146         0.003064      0.058559     -0.036987
O	      6.35695      6.28040      6.38458        -0.037509     -0.153442      0.031978
O	      6.45646      4.22509      8.48904         0.009291     -0.080050      0.076117
O	      8.43104      6.15611      8.53779         0.033258      0.003987      0.000311
O	      2.02597      6.15019      6.20612         0.002895      0.128479     -0.139545
O	      4.37577      8.39799      6.20358         0.024080      0.024382     -0.129552
O	      4.35778      6.19025      8.62199         0.219319     -0.021838      0.044794
O	      6.53275      6.18678     10.52030         0.055543     -0.066648      0.070838
O	      8.68140      8.26600     10.59710         0.084541     -0.025160     -0.059089
