# total energy = -228.55255131 eV
 
CRYSTAL
PRIMVEC
0.022717 6.318749 6.233148 
6.242834 0.028520 6.227231 
4.171815 4.218481 0.009157 
PRIMCOORD
36 1
Li	      6.26701      6.33378     12.37395         0.005310     -0.023837     -0.021737
Li	      4.19701      8.45079      8.27336        -0.023009      0.033706     -0.026195
Li	      4.24886      6.35353     10.41569        -0.038599      0.023705     -0.006344
Li	      4.17414      6.28557      2.06569         0.023607     -0.060043      0.030198
Li	      4.23309      2.12284      6.23307         0.067445      0.027757      0.022905
Li	      6.29021      4.15166      6.28013         0.014508     -0.055227     -0.002035
Li	     10.40870      8.50409     10.42177        -0.021468      0.002498     -0.045494
Li	      2.11480      6.28785      4.17211         0.060308      0.003379     -0.027374
Li	      6.22812      8.48237      6.25116        -0.034215      0.029653     -0.015534
Sc	      6.27885      6.33419      4.27731        -0.046156      0.010868      0.059662
Mn	      4.22264      4.18713      8.29522         0.075946     -0.044821      0.009405
Cr	      2.05155      0.02490      2.05281        -0.070341      0.059801     -0.002611
Cr	      8.34992      4.23598      8.27927         0.051066     -0.071447      0.015566
Cr	      4.16630      4.21967      4.22799        -0.023433      0.048975      0.037487
Cr	      6.24816      6.35527      8.32340         0.048813     -0.012999     -0.134974
Fe	      8.35347      8.47569     12.37457         0.018455     -0.056069     -0.019869
Ni	      6.22753      2.11291      4.16950        -0.046291      0.005331      0.061482
Ni	      4.14356      6.35566      6.22777         0.011284      0.052856     -0.062373
O	      2.07971      2.09876      2.10194         0.007037      0.014472      0.012022
O	      4.18143      4.21658      2.20658        -0.015732     -0.018023      0.048516
O	      4.17346      2.20160      4.26143        -0.083025     -0.042299     -0.041688
O	      6.19518      4.22712      4.08490         0.022988      0.053629     -0.016780
O	      6.47173      2.12671      6.19240        -0.313288     -0.020337      0.075920
O	      8.37136      4.06956      6.30101        -0.024775      0.213327      0.026471
O	      2.15583      4.19704      4.09470         0.008162      0.024815     -0.052738
O	      4.20043      6.22278      4.19910         0.010700     -0.066750     -0.134152
O	      4.19840      4.26755      6.32132         0.001095     -0.043208      0.015749
O	      6.19796      6.39112      6.35906         0.089595     -0.016651      0.146194
O	      6.30736      4.38044      8.31861        -0.048172      0.028410     -0.012140
O	      8.21564      6.25949      8.23841        -0.127639      0.011879      0.037911
O	      2.08473      6.46538      6.30981        -0.094809     -0.125546      0.048545
O	      3.96809      8.41095      6.18464         0.263544      0.050741      0.028416
O	      4.17210      6.31506      8.29900         0.094402      0.069726      0.127663
O	      6.30594      8.47771      8.29353         0.037187     -0.035606     -0.056762
O	      6.24690      6.39880     10.16635        -0.010130     -0.112519     -0.050363
O	      8.32204      8.42100     10.25990         0.109631      0.039855     -0.074944
