# total energy = -213.09100427 eV
 
CRYSTAL
PRIMVEC
-0.003425 6.240673 6.175068 
6.391594 0.016627 6.155079 
4.271262 4.156597 0.001267 
PRIMCOORD
36 1
Li	      2.22165      6.18834      8.20719        -0.002967     -0.055161     -0.028134
Li	      4.33352      8.20265      8.20496         0.009691     -0.009032     -0.002462
Li	      4.35495      6.21754     10.23685         0.123324     -0.040282     -0.002966
Li	      6.47652      8.27943     10.20210         0.084978     -0.034263     -0.015836
Li	      8.40114      6.26800      6.16251        -0.039907     -0.016934      0.023844
Li	     10.57610      8.44830     10.33603        -0.069308      0.059760     -0.028412
Li	      8.42583      6.31994     10.33185        -0.034229      0.034291     -0.005995
Li	      6.40476      8.31420      6.18076        -0.011522      0.085747      0.033225
Li	      6.27502      6.34845      8.18058        -0.017213      0.004166      0.028606
Sc	      8.45978      4.23967      8.23037         0.004378      0.053880     -0.051943
Mn	      0.07949      6.17808      6.09142        -0.007694     -0.036057      0.072464
V	     10.62489      6.28398      8.25800        -0.058523     -0.061352     -0.024957
V	      4.29106      4.00042      4.19292        -0.074431      0.096739      0.025625
Co	      8.41326      8.36775      8.27745         0.033801      0.374297     -0.103133
Cu	      6.41062      4.20766      6.12756         0.042285     -0.118150      0.115196
Ni	      2.17654      8.30758      6.13672         0.049904     -0.041465     -0.151435
Ni	      6.42450      6.23172      4.14292        -0.015369      0.014585     -0.087971
Ni	      4.25893      6.26328      6.20043        -0.136739      0.051037     -0.126739
O	      1.97799      2.13199      2.07456        -0.033522      0.060444     -0.020830
O	      4.21803      4.23503      2.08044        -0.033019      0.052005     -0.010009
O	      4.26778      2.22982      4.05874         0.022689     -0.108943      0.039003
O	      6.22408      4.19084      4.20315        -0.034828     -0.149434     -0.113244
O	      6.46957      2.01197      6.32004        -0.071227     -0.012853      0.026595
O	      8.76180      4.14095      6.15420        -0.024123      0.063833     -0.027596
O	      2.28833      4.14122      4.09718         0.022142      0.118072     -0.012711
O	      4.27759      6.13094      3.99103         0.005050     -0.006520     -0.046672
O	      4.16246      4.20011      6.14756         0.003119     -0.122588     -0.154073
O	      6.31711      6.16713      6.13144         0.106416      0.023096      0.169825
O	      6.32380      4.09630      8.16682        -0.013722      0.009468      0.087193
O	      8.64466      6.34844      8.20471         0.058960      0.069718     -0.023221
O	      2.02398      6.30587      6.16677         0.077351     -0.002561     -0.006778
O	      4.24929      8.39831      6.19865         0.039709      0.021075      0.000919
O	      4.22749      6.10713      8.19442         0.051549     -0.330732      0.110475
O	      6.62739      8.30504      8.23072         0.016273     -0.072426      0.023078
O	      6.42429      6.26326     10.43975         0.007093      0.022182     -0.058612
O	      8.56376      8.35236     10.08685        -0.080371      0.004356      0.347684
