# total energy = -214.14740987 eV
 
CRYSTAL
PRIMVEC
0.009982 6.455799 6.261217 
6.110371 0.027599 6.244696 
4.088988 4.308991 0.002299 
PRIMCOORD
36 1
Li	      2.12800      0.04987      2.15171        -0.137688      0.028954     -0.019695
Li	      4.04450      2.13560      2.12922         0.003754      0.038203      0.029786
Li	      8.18016      4.26583      8.22453        -0.013477      0.012265      0.007835
Li	      4.10869      4.24175      4.09886        -0.048548      0.060839     -0.020765
Li	      4.05098      2.09668      6.11057        -0.019347      0.028815      0.053791
Li	      6.08533      4.37598     10.41482         0.032218     -0.026403      0.041092
Li	      4.07756      6.51047      6.49199         0.005189     -0.015175     -0.021756
Li	      4.16578      4.54882      8.37576        -0.035525     -0.108029      0.022688
Li	      5.95840      6.27445      8.33754         0.215687      0.019269     -0.030512
Sc	      6.14581      2.16622      8.22040        -0.040997      0.014621     -0.038318
Mn	      2.07322      2.18829      4.14609        -0.054371      0.150586      0.042397
V	      8.16792      6.43116     10.29068         0.043556     -0.056610      0.189415
V	      6.21471      8.62721      6.49294         0.040913      0.017875     -0.205030
Co	      4.12564     10.73445      6.27121         0.039414      0.039324      0.168518
Cu	      4.07114      6.48275     10.35578         0.091357     -0.000961     -0.013537
Cu	      6.11971      4.32647      6.24154        -0.121789      0.086510      0.057074
Ni	      2.16791      8.58179      6.27972        -0.021427     -0.070073      0.028737
Ni	      6.07210      2.18297      4.13755        -0.084023      0.004996     -0.067004
O	      4.07456      6.46940      8.46932         0.046614      0.025855     -0.038853
O	      2.05588      2.17420      2.18768        -0.048428     -0.010839      0.039503
O	      4.06930      4.37294      1.91196         0.044751      0.031001     -0.053690
O	      3.97551      2.28069      4.18776         0.007873      0.116923     -0.027933
O	      6.09852      4.27105      4.31609         0.022554     -0.095814     -0.043503
O	      6.15341      1.96429      6.17043        -0.103389     -0.196372      0.067064
O	      8.25456      4.20734      6.07801        -0.036876      0.009755      0.004488
O	      2.03271      4.56508      4.30554         0.061635     -0.040814      0.031316
O	      4.02121      6.48778      4.12052         0.100721     -0.035000     -0.098097
O	      3.89772      4.39758      6.30234         0.009221      0.045258     -0.022146
O	      6.06782      6.79647      6.13349         0.024734      0.084068     -0.040794
O	      6.12859      4.27249      8.13672        -0.018914     -0.003543      0.047503
O	      8.11351      6.43140      8.53251        -0.061774     -0.016346     -0.138855
O	      1.99532      6.35440      6.22348         0.044897     -0.025721     -0.053731
O	      4.22033      8.79275      6.27560         0.048192      0.054096      0.034645
O	      6.13336      8.62220      8.24012         0.040003      0.045501      0.106302
O	      6.24968      6.51367     10.50907        -0.164416     -0.123841      0.038478
O	      8.15649      8.32363     10.51519         0.087705     -0.089173     -0.076411
