# total energy = -212.62353548 eV
 
CRYSTAL
PRIMVEC
0.017013 6.423385 6.255143 
6.155722 -0.002342 6.274358 
4.091494 4.283107 0.011063 
PRIMCOORD
36 1
Li	     10.18319      4.42567      6.37940         0.027485      0.132449     -0.092501
Li	      4.06320      2.26339      2.13818        -0.035297     -0.034180     -0.008487
Li	      6.15741      8.56400     10.40283         0.025242     -0.092177      0.035107
Li	      8.12808      4.35341      8.24226         0.044297      0.070599      0.003109
Li	      4.20554      2.08254      6.22135         0.033204     -0.017686     -0.009823
Li	      6.19216      4.16400      6.42845         0.004062     -0.118264      0.026141
Li	      6.17158      4.27201     10.30628         0.002318      0.014204     -0.028936
Li	      4.23702      4.17522      8.33010         0.001061     -0.051358      0.017047
Li	      6.28717      6.18107      8.34177         0.029927     -0.095611      0.021749
Sc	      4.17075      6.39884     10.46622         0.180786     -0.172542      0.047574
Mn	      8.13427      6.52772     10.39203        -0.159436     -0.059609     -0.034488
V	      6.10854      8.57535      6.31724        -0.091903     -0.025939     -0.084257
V	      4.10139      6.45378      6.34330         0.051573      0.110600     -0.079350
Co	      6.10496      4.28579      2.08593         0.007146      0.029865     -0.029573
Cu	      8.18367      2.28622      6.30642        -0.109088      0.030447      0.014749
Cu	      6.16910      2.18845      8.34962        -0.346157      0.047715     -0.279761
Cu	      6.15967      6.40126      4.18230         0.043866      0.011676      0.056797
Cu	      4.13784      4.19563      4.17285        -0.098659     -0.249893      0.021808
O	      6.19900      4.14961      8.36270         0.004653     -0.108361      0.041235
O	      8.27732      6.40452      8.53864        -0.072400      0.050308      0.038894
O	      1.99100      1.92517      2.20502         0.357075     -0.157176      0.154636
O	      4.20574      4.35596      2.21502         0.082264      0.335209      0.120034
O	      4.02946      2.02717      4.16345        -0.019387      0.128338     -0.036995
O	      6.16471      4.13331      3.98237        -0.112632     -0.117379     -0.124129
O	      6.25435      2.15538      6.38825         0.150431     -0.033165     -0.534596
O	      8.23408      4.29062      6.22917        -0.015670      0.134127     -0.049974
O	      2.03475      4.55893      4.35595         0.154354      0.041565      0.119557
O	      4.00011      6.49189      4.37756         0.178524     -0.022580      0.229306
O	      4.02558      4.39785      6.17485         0.037272      0.173963     -0.032516
O	      6.06367      6.59978      6.22806        -0.036739      0.072178      0.022696
O	      2.06472      6.38223      6.27296         0.071042     -0.182110      0.178217
O	      4.08744      8.42936      6.29774         0.083374     -0.160499      0.081616
O	      4.04441      6.36587      8.19371        -0.126983     -0.011067      0.113825
O	      6.13994      8.75542      8.12169        -0.066056      0.128754      0.027317
O	      6.26075      6.45953     10.36136        -0.316423     -0.031431     -0.045802
O	      8.18797      8.42575     10.41753         0.036872      0.229029      0.099774
