# total energy = -213.33533842 eV
 
CRYSTAL
PRIMVEC
0.004864 6.156549 6.243654 
6.350496 -0.009376 6.258537 
4.223153 4.104027 0.003782 
PRIMCOORD
36 1
Li	      4.26518     10.24072      6.29373         0.004286      0.075837     -0.019374
Li	      4.14914      2.17607      2.17418        -0.024638     -0.046630      0.083457
Li	      8.41111     10.22088     10.37602         0.018493     -0.013390     -0.021876
Li	      6.29402      2.12181      4.12366         0.009639     -0.001597     -0.009701
Li	      4.25435      6.05678      2.20121         0.018285      0.008649     -0.045812
Li	      6.21106      6.07393      4.14792         0.033046      0.074357     -0.027638
Li	      4.39957      4.22991      4.01552        -0.032029      0.057120      0.020968
Li	      2.13282      6.13651      4.15113        -0.014922     -0.012118      0.039279
Li	      4.18828      6.19398      6.14078        -0.066601     -0.034883      0.037860
Sc	      2.07187      4.16302      6.20878         0.187179      0.085236     -0.160628
Mn	      2.15301      8.16308      6.23065        -0.123567     -0.013361     -0.254734
V	      4.33722      1.96415      6.09204        -0.028943     -0.009865      0.069908
V	      8.48745      8.20619      8.42477        -0.170514     -0.034363      0.188408
Co	      4.25244      8.17677      4.17257        -0.214276     -0.161289      0.205685
Ni	      6.23979      4.12908      2.18026        -0.015738      0.066496     -0.033465
Ni	      2.21663      4.09051      2.15918        -0.041393      0.077761      0.097562
Ni	      6.31140      4.15774      6.13582        -0.015147     -0.025273      0.125912
Ni	      6.34535      6.14931      8.42032        -0.030531      0.120424     -0.061472
O	      2.13464      2.06186      1.85614         0.000196      0.032869      0.015325
O	      4.20409      4.08181      2.10674         0.078280      0.050787     -0.038287
O	      4.21714      2.03431      4.37951         0.000623      0.033002     -0.102454
O	      6.36472      4.11368      4.17543         0.059557     -0.022017      0.035624
O	      6.14166      2.09115      6.23434         0.060614     -0.152948      0.001822
O	      8.40682      4.19593      6.32262         0.061356     -0.076849     -0.084876
O	      1.94606      4.09569      4.14196         0.139829     -0.071340      0.140341
O	      4.23977      6.32388      4.18292         0.034874      0.059492     -0.048505
O	      4.23785      3.97602      6.35078        -0.017687      0.020313     -0.103769
O	      6.55282      6.16679      6.33916        -0.041134     -0.006186     -0.063618
O	      6.27798      4.08732      8.45072         0.154751     -0.110943      0.121294
O	      8.44448      6.27168      8.25915         0.103256     -0.106862     -0.050352
O	      2.11316      6.21360      6.29315         0.017197      0.063564     -0.039342
O	      4.25965      8.20580      6.10437        -0.103065      0.024551     -0.295921
O	      4.23606      5.92116      8.30695         0.067318      0.107873     -0.065771
O	      6.46038      8.19000      8.35476        -0.018495     -0.021286     -0.012688
O	      6.34098      5.95813     10.39542        -0.022063     -0.007318      0.207570
O	      8.62068      8.17058     10.43867        -0.068033     -0.029812      0.149266
