# total energy = -216.30365390 eV
 
CRYSTAL
PRIMVEC
0.019944 6.134341 6.256448 
6.341169 -0.027457 6.303695 
4.199314 4.092961 0.009978 
PRIMCOORD
36 1
Li	      4.20348      0.05560      4.12979        -0.054207     -0.023779      0.019960
Li	      6.30427      8.11899     10.46540        -0.019184      0.006844      0.063231
Li	     10.40959      6.10760      8.38647        -0.050690      0.028507     -0.037578
Li	      8.45954      4.21438      8.35182        -0.018966      0.097258     -0.017366
Li	      4.27593      4.07838      4.11241         0.032325     -0.025131     -0.073966
Li	      8.47455      6.08991      6.36418         0.032307     -0.052933      0.028383
Li	      6.30077      4.08151      6.37584        -0.004987      0.008355      0.054223
Li	      4.26338      6.11552      6.31701         0.073309     -0.016507     -0.003896
Li	      6.39752      6.09893      8.39884         0.086546      0.090840      0.032306
Sc	      6.31432      4.08905     10.38521        -0.073395      0.001267     -0.002273
Mn	      6.32351      6.06568      4.17291         0.021114     -0.041837     -0.055200
V	      8.29117      2.11998      6.34019         0.114313      0.045879      0.084948
V	      2.29511      4.05546      6.28170         0.023493      0.020511     -0.027840
Co	      6.34313     10.19770      8.37774         0.011414     -0.015306     -0.003536
Co	      4.24366      8.14325      8.36596         0.006642     -0.019874      0.008096
Cu	     10.51601      4.10398      6.32883        -0.125438      0.086556     -0.017470
Cu	      4.33029      4.07207      8.35738         0.020236      0.110230     -0.098918
Ni	      8.46497      6.09379     10.42481         0.042124     -0.020167      0.096274
O	      8.43781      6.21898      8.43287        -0.031936      0.022913     -0.057584
O	      2.25959      1.93114      2.10715         0.041579     -0.120070      0.094458
O	      4.33970      3.95297      2.01627         0.161042     -0.079009      0.054098
O	      4.06127      2.04057      4.03491        -0.084478     -0.016197     -0.118660
O	      6.29221      4.18447      4.06206         0.030673      0.030057     -0.105986
O	      6.42880      1.97977      6.34322        -0.148858      0.041782      0.053562
O	      8.35885      3.87868      6.38252        -0.115782     -0.025402      0.062406
O	      2.09576      4.03096      4.27290        -0.009466     -0.160187     -0.028413
O	      4.34220      6.12303      4.15388         0.110384      0.029477     -0.054874
O	      4.04456      4.06681      6.23517         0.065997     -0.056095     -0.019477
O	      6.34049      6.21034      6.11662        -0.022344     -0.032450     -0.174518
O	      6.30632      4.13067      8.38630         0.002845      0.030260      0.100312
O	      2.25091      6.12511      6.36735         0.134884     -0.043258      0.123499
O	      4.28451      8.18826      6.36467         0.086999     -0.088003      0.074754
O	      4.09218      6.12316      8.38573        -0.124941      0.049893     -0.016500
O	      6.20726      8.25534      8.30324        -0.099198      0.005995     -0.035565
O	      6.40685      6.12096     10.58365        -0.111682      0.017179     -0.069506
O	      8.45037      8.09835     10.69326        -0.002669      0.112402      0.068617
