# total energy = -216.47221164 eV
 
CRYSTAL
PRIMVEC
0.034976 6.176659 6.607686 
6.185948 0.011888 6.627449 
4.127757 4.136067 0.006027 
PRIMCOORD
36 1
Li	     10.19388      4.19815      6.67136         0.100882     -0.053521      0.002418
Li	      4.17506      8.22419      8.80316         0.004740      0.077651      0.095038
Li	      8.29808      4.16738      4.71488        -0.040719      0.070796     -0.014180
Li	     10.15235      6.19888      8.65410         0.253980     -0.039115      0.017267
Li	      8.24074      4.26751      8.68172         0.021524     -0.276022      0.045140
Li	      8.36335      6.14127      6.78687        -0.047577      0.084677     -0.240508
Li	      8.30326      6.13650     10.76249         0.071101     -0.024415      0.149328
Li	      6.15700      8.30169      6.61134         0.023138      0.075367     -0.045209
Li	      8.27969      8.14847      8.79331        -0.015650      0.245575     -0.012897
Sc	      2.17664      2.09091      4.41543         0.161365     -0.133385     -0.147609
Mn	      4.12942      6.19562      6.62665        -0.249035     -0.110417     -0.162120
V	      6.09870      4.10425      2.23368        -0.291501      0.165946      0.125544
V	      6.09543      4.28154     10.90487         0.168536     -0.304964      0.225316
Co	      6.23171      2.07717      4.48007        -0.103688      0.145118     -0.006053
Co	      6.27214      6.24464      8.76278         0.352439      0.086237     -0.066042
Cu	      8.21878      2.13353      6.69644         0.090787     -0.203323      0.037516
Cu	      4.09765      4.17455      4.50129        -0.107974     -0.156563     -0.328082
Cu	      6.22340      4.09418      6.66496        -0.277534      0.167570     -0.073214
O	      8.19776      6.19483      8.78708        -1.008237      0.079378     -0.098675
O	      2.10353      1.84431      2.34840         0.011659      0.161172      0.016056
O	      4.30663      4.12756      2.26161         0.022118      0.058037     -0.144508
O	      4.19440      2.22726      4.46998         0.034532     -0.454398      0.007153
O	      6.45596      4.11906      4.08866         0.172865     -0.126972      0.008265
O	      6.26210      2.12317      6.55520        -0.103176     -0.118093      0.132912
O	      8.17201      4.08297      6.68305         0.087610      0.160173      0.054629
O	      1.80550      4.09862      4.48507        -0.198282      0.107036     -0.001376
O	      4.12360      6.15726      4.62736        -0.073033      0.399124      0.105055
O	      4.20852      4.26949      6.50577         0.058517     -0.036099      0.595496
O	      6.06840      6.13438      6.57222         0.240300      0.082093      0.386213
O	      6.20798      4.08180      9.13362         0.013055      0.056443     -0.232348
O	      2.18308      6.20683      6.89093         0.105201      0.024714     -0.248619
O	      4.06333      8.13304      6.44838         0.020292      0.120411     -0.030352
O	      4.18898      6.19774      8.52173         0.592774     -0.011369      0.113478
O	      6.23994      8.41098      8.85147         0.082884     -0.577816     -0.025696
O	      6.16061      6.07321     11.04887         0.020188      0.360676     -0.190118
O	      8.43394      8.20266     10.97817        -0.194083     -0.101723     -0.049215
