# total energy = -215.57142105 eV
 
CRYSTAL
PRIMVEC
-0.013635 6.320604 6.173048 
6.360940 -0.000499 6.159179 
4.242837 4.207137 -0.002102 
PRIMCOORD
36 1
Li	      6.41259     10.41016      8.24725        -0.002526      0.030908      0.025318
Li	      4.21515      6.35521     10.21123        -0.060136     -0.014695      0.052973
Li	      6.27170      2.18120      4.02009        -0.044508      0.156701      0.079647
Li	     10.37335      6.31287      8.26830         0.111474      0.055009     -0.046245
Li	      4.23652      4.21069      4.14230         0.162477     -0.071035      0.052058
Li	      8.41422      6.39346      6.30828        -0.032936      0.031432     -0.096938
Li	      2.20462      6.23668      3.98565         0.000966      0.044991      0.099551
Li	      8.43329      8.32345      8.22553        -0.020595      0.020644      0.056989
Li	      6.44207      6.37504      8.18666        -0.072794     -0.038647      0.023583
Sc	      6.34569      6.29983      4.08833         0.046623     -0.517863      0.069737
Mn	      4.29921      8.38100      8.25943         0.086592     -0.041310      0.023859
V	      6.37052      6.37658     12.27121        -0.072852      0.059399      0.099133
V	      8.43554      8.42033     12.21925         0.067730      0.051822     -0.027898
Co	      6.24121      4.23942      6.21270         0.133919      0.194209     -0.179312
Co	      6.36720      4.18247     10.14294        -0.039846      0.047967     -0.172914
Ni	      8.50494      4.29305      8.21597        -0.255427     -0.117356     -0.070233
Ni	      2.19156      4.21507      6.19524        -0.052192      0.089018      0.005742
Ni	      4.22890      6.27890      6.18793        -0.008264      0.029463      0.033937
O	      8.46342      6.23627      8.21338        -0.035731      0.019301      0.025559
O	      2.29391      2.16773      1.94804         0.050767      0.009184      0.003478
O	      4.22677      4.07527      1.89465         0.019577      0.034060      0.027454
O	      4.22331      2.11878      3.94413        -0.026363      0.020413     -0.066323
O	      6.35652      4.21412      4.35807        -0.184094      0.180248     -0.244391
O	      6.52210      2.01461      6.19453        -0.133534      0.367742      0.012003
O	      8.56543      4.08592      6.18313        -0.286336      0.154261     -0.055500
O	      2.07426      4.20159      4.13508        -0.096738      0.035672      0.023767
O	      4.26763      6.36843      4.12286        -0.093681      0.159540     -0.106167
O	      4.24044      4.27122      6.23742         0.601471     -0.198774      0.043048
O	      6.32135      6.32304      6.14729         0.110355     -0.677510      0.058891
O	      6.41699      4.18918      8.07637         0.052277      0.011666      0.385335
O	      2.02402      6.42099      6.20885        -0.087811     -0.065782     -0.049427
O	      4.19866      8.46132      6.23154         0.027852      0.074376      0.038635
O	      4.20105      6.50726      8.19673        -0.004243      0.103215      0.122353
O	      6.19313      8.43801      8.19389        -0.021889     -0.046628      0.061824
O	      6.32621      6.21938     10.49230         0.026116     -0.097434     -0.172453
O	      8.53516      8.43565     10.43913         0.134301     -0.094207     -0.137075
