# total energy = -218.77819532 eV
 
CRYSTAL
PRIMVEC
0.022065 6.364098 6.090780 
6.435803 0.026890 6.085746 
4.311577 4.260502 -0.002965 
PRIMCOORD
36 1
Li	     10.67333     10.61651     12.09758        -0.027613     -0.154727      0.035119
Li	      8.65986      8.61036     12.12290         0.159846      0.035425      0.021369
Li	      6.45840      6.38258      4.21441        -0.000994      0.019090     -0.002793
Li	      8.41964      6.28692      6.09436        -0.050238      0.000312     -0.033943
Li	      6.57911      4.45297      6.06627        -0.023617      0.014640      0.030377
Li	     10.73373      8.62777     10.24434        -0.054696      0.036763      0.134443
Li	      8.51748      6.45490     10.21192         0.012204      0.006800      0.074347
Li	      6.36749      8.32091      6.07003        -0.139138     -0.013056     -0.004141
Li	      4.51552      6.47662      6.07252         0.041602      0.183309     -0.047028
Sc	      6.40046      2.22698      7.98029         0.076798      0.145899      0.056740
Mn	      6.45138      2.13963      4.11323        -0.058395      0.016430     -0.085173
V	      2.21133      6.38512      7.93653        -0.083722     -0.043042     -0.058860
V	      4.21618      4.33652      4.21546         0.081870     -0.008079      0.060719
Co	      4.28314      8.51660      7.97729         0.310826      0.012443      1.218299
Co	      8.61039      4.26328      4.17027         0.147305      0.072040      0.189398
Co	      4.33015      4.23579      8.07728        -0.245277     -0.200581      0.146335
Cu	      8.56798      4.32831      8.02620        -0.007953     -0.133501      0.052402
Ni	      6.52662      6.33554      8.07124        -0.046710      0.023362     -0.035519
O	      2.18161      1.99199      2.06691         0.503793     -0.145812     -0.149965
O	      4.48663      4.25839      2.10807         0.053986     -0.488701     -0.179356
O	      4.46703      2.25751      3.94369        -0.084041     -0.062084     -0.347884
O	      6.32888      4.11388      3.99686         0.133030     -0.041876     -0.040076
O	      6.44990      2.13019      5.97885        -0.008062      0.006725     -0.003081
O	      8.59946      4.27533      6.12110        -0.093044      0.070167     -0.205496
O	      2.45052      4.19208      3.94584        -0.045281     -0.015653     -0.044367
O	      4.36208      6.12137      4.04869         0.025845     -0.076718     -0.088782
O	      4.29849      4.21913      5.95404         0.028551      0.018480      0.179794
O	      6.44614      6.39455      6.12358         0.134111     -0.125796     -0.115148
O	      6.38322      4.25168      8.23857         0.187778     -0.109960      0.000626
O	      8.64744      6.41178      8.12636         0.036620      0.453812      0.009189
O	      2.18393      6.28527      6.21452         0.002380      0.023170      0.039102
O	      4.32978      8.51282      6.18003        -0.128555     -0.015825     -0.287461
O	      4.19659      6.43154      8.20000        -0.043111      0.391941     -0.171304
O	      6.47823      8.58471      8.21343        -0.554573      0.016736     -0.043748
O	      6.42757      6.57800     10.10126        -0.140859      0.051578      0.081641
O	      8.40717      8.55479     10.14372        -0.100664      0.036290     -0.385775
