# total energy = -219.26934108 eV
 
CRYSTAL
PRIMVEC
0.043849 6.251536 6.287413 
6.156637 -0.027454 6.358946 
4.087640 4.198031 -0.001009 
PRIMCOORD
36 1
Li	      6.07209      0.01245      6.30128         0.060912      0.058779     -0.013761
Li	      8.15237      2.16117      6.23011         0.029322     -0.037293     -0.037938
Li	      4.18919      8.37210      8.37533        -0.059815     -0.021829     -0.030561
Li	      8.38214     10.39068     10.67589        -0.004002      0.025635     -0.008437
Li	      8.18088      4.25140      8.34546         0.044802     -0.042561      0.047507
Li	      8.28076      6.11418      6.35032        -0.022296      0.023592     -0.005915
Li	      6.16656      4.29280     10.53269         0.058946      0.038649      0.027579
Li	      2.06801      4.20094      6.32056        -0.013794      0.022997     -0.025988
Li	      6.20560      6.20115      8.54365        -0.052176      0.008628      0.073087
Sc	      8.21012      8.29160      8.48450        -0.005803      0.035124      0.045107
Mn	      6.25947      4.10964      6.35780         0.065121     -0.050331     -0.022706
V	      2.16939      2.13329      4.18177         0.050112      0.071309      0.006649
V	      4.06116      6.42608      6.33958        -0.139706     -0.070955      0.054912
Co	      6.09713      4.15107      2.12704         0.043993     -0.062620     -0.013895
Co	      6.13806      2.09794      4.21732         0.056510     -0.071259      0.007099
Co	      4.12521      4.16285      4.22303        -0.098027     -0.081591     -0.010377
Cu	     10.22722      6.21118      8.42743         0.038293      0.043466     -0.147101
Cu	      8.16705      6.23984     10.56048        -0.050008      0.036875      0.074244
O	      1.99044      1.90667      2.32517         0.031705     -0.055496     -0.043654
O	      4.17773      4.23869      2.27921         0.059991     -0.016005      0.114040
O	      4.10634      2.22282      4.19629        -0.033553      0.077327      0.004427
O	      6.05743      4.13800      4.07576        -0.050183      0.014271      0.012571
O	      6.14923      2.17262      6.13715         0.026238      0.000622     -0.149011
O	      8.12727      4.15438      6.35390        -0.048059      0.004124     -0.004641
O	      2.20838      4.00417      4.24157         0.016141     -0.177701      0.024644
O	      4.09258      6.10250      4.36281         0.042553     -0.088206      0.078827
O	      4.23298      4.25421      6.25134        -0.009323     -0.034955     -0.020915
O	      6.12023      6.14177      6.11259        -0.012254     -0.007236      0.030798
O	      6.17521      4.05148      8.49996         0.009588      0.091277     -0.075514
O	      8.24409      6.22606      8.48939        -0.029768     -0.010513     -0.114186
O	      2.14665      6.21064      6.42614        -0.000312      0.025208      0.104380
O	      4.15144      8.17764      6.23970        -0.007138      0.119839      0.019703
O	      4.03484      6.22294      8.27863        -0.031189     -0.023220      0.012572
O	      6.13050      8.44521      8.49307         0.035788      0.079378      0.074347
O	      6.25305      6.42971     10.53972        -0.035113     -0.010814     -0.017408
O	      8.10537      8.44329     10.50861         0.032507      0.085485     -0.070486
