# total energy = -218.59837203 eV
 
CRYSTAL
PRIMVEC
-0.014732 6.324458 6.225066 
6.309931 0.013301 6.197836 
4.216685 4.207684 -0.000760 
PRIMCOORD
36 1
Li	      6.34118      6.27054     12.21409        -0.012505     -0.022031      0.107195
Li	      2.26092      6.20975      8.19571        -0.040941     -0.032585     -0.018840
Li	      4.11599      8.32763      8.22381        -0.009053     -0.000310      0.074423
Li	      4.20974      6.26916     10.28791         0.000054     -0.009672      0.045772
Li	      6.42172      8.41640     10.43744        -0.014823      0.007275      0.017863
Li	      6.36311      2.21015      8.24961         0.021970      0.000352      0.010282
Li	     10.34677      8.49106     10.43630         0.028059     -0.027766     -0.004235
Li	      8.26398      6.46250     10.44682        -0.036528     -0.007197     -0.002042
Li	      4.04509      6.37936      6.26930        -0.012297     -0.035135     -0.051185
Sc	      6.18494      6.35610      8.40979        -0.071772      0.023428      0.069769
Mn	      6.15541      8.49160      6.19690        -0.205883      0.025020     -0.070716
V	      2.24802      4.27651      2.12345         0.289663     -0.081764     -0.121008
V	      6.28498      6.21894      4.11772         0.023076      0.022576     -0.150719
Co	      8.42551      8.42123     12.34644        -0.322121     -0.098776      0.108410
Co	      4.26082      4.21379      4.17573        -0.007514      0.025637     -0.098691
Co	      6.36092      4.20576      6.24737         0.030041      0.001553     -0.056899
Ni	      4.32258      2.10343      6.16215         0.124096     -0.015967     -0.038944
Ni	      4.21318      4.26282      8.31833         0.018441     -0.154904      0.202080
O	      2.10498      2.29440      2.06175        -0.005442      0.075014      0.103404
O	      4.00507      4.23732      2.07373        -0.249585      0.048871      0.053679
O	      3.98920      2.19376      4.14844         0.012192      0.071924     -0.152607
O	      6.36373      4.29313      4.29692        -0.041028     -0.005289      0.038367
O	      6.45854      2.30456      6.21388        -0.085553      0.070460      0.024087
O	      8.31083      4.26622      6.41011        -0.047531     -0.017642      0.063129
O	      2.05557      4.14902      4.04334        -0.006764     -0.030202      0.141841
O	      4.46437      6.25736      4.12189         0.000836     -0.045634     -0.020594
O	      4.44183      4.11182      6.25447        -0.033035      0.145949     -0.075631
O	      6.38677      6.37628      6.13399        -0.015908     -0.084972      0.000144
O	      6.38323      4.23631      8.18762         0.058241      0.008646     -0.010180
O	      8.42367      6.15869      8.28749        -0.040701      0.042995      0.126067
O	      2.03780      6.14356      6.19270         0.063923      0.097944      0.002080
O	      4.00225      8.39575      6.20902         0.601333     -0.029031      0.006405
O	      4.19413      6.26356      8.27820         0.032181      0.105402     -0.007711
O	      6.36162      8.42319      8.11056        -0.062804     -0.047527      0.014490
O	      6.24950      6.40394     10.32992        -0.022091     -0.048839     -0.019017
O	      8.40660      8.41081     10.45770         0.039774      0.022197     -0.310470
