# total energy = -220.42286947 eV
 
CRYSTAL
PRIMVEC
-0.005704 6.300815 6.229262 
6.289606 0.028020 6.195905 
4.200542 4.185639 0.011284 
PRIMCOORD
36 1
Li	      4.31605      4.15395      0.17149         0.045654      0.003465      0.065160
Li	      6.11477      4.25617      2.04304         0.018243     -0.107717     -0.020811
Li	      4.17832      2.28495      2.02312         0.130901      0.003876      0.036210
Li	      6.30432      8.39375     10.37103        -0.004208      0.066781     -0.080118
Li	      4.28323      6.15565      2.10737        -0.075574      0.034742      0.016083
Li	      2.29842      4.13495      2.13338        -0.042124      0.091715     -0.010943
Li	      0.06708      4.17040      4.17758        -0.006233     -0.023738     -0.024340
Li	      2.11147      6.22951      4.22353         0.044754     -0.074883     -0.016486
Li	      1.98470      4.28662      6.14792         0.017773      0.006829      0.044390
Sc	      8.33754      4.24886      4.16236        -0.226140      0.058249      0.066483
Mn	      4.39965      2.07113      6.22670        -0.014573      0.015525     -0.010431
V	      6.27741      6.34037      8.29866         0.103585     -0.024839     -0.036658
V	      8.33151      8.39370      8.27486        -0.138197     -0.031325     -0.183489
Co	      2.16056      2.05875      0.14473         0.072826      0.018008     -0.062410
Co	      2.02847      2.19504      3.98859         0.068503      0.041314     -0.095618
Co	      4.16694      4.20993      4.15122        -0.029918      0.015920     -0.067254
Co	      4.10940      6.31839      6.21015         0.002861     -0.043387     -0.028231
Cu	      6.34414      4.18896      6.22313         0.028452     -0.017234     -0.003963
O	      2.08411      2.11898      2.15873         0.017566      0.004435      0.019636
O	      4.21641      4.21637      2.26930        -0.021591      0.021937      0.024015
O	      4.17442      2.18062      4.16565        -0.136442     -0.087006      0.034916
O	      6.20806      4.26329      4.21791        -0.080217      0.020677     -0.102446
O	      6.52192      2.19061      6.21564         0.089791     -0.160522     -0.031350
O	      8.58406      4.10042      6.17747         0.227252     -0.075696      0.055413
O	      2.24112      4.12962      4.17637        -0.005897     -0.064869     -0.070561
O	      4.20330      6.14931      4.28833         0.094670      0.113948      0.078787
O	      4.05149      4.31806      6.28279        -0.098809      0.120697     -0.038516
O	      6.13020      6.22365      6.23098        -0.080749      0.073666      0.130378
O	      6.13270      4.33598      8.20307         0.000285     -0.178743      0.117083
O	      8.25936      6.42640      8.25579        -0.018416     -0.018286     -0.018965
O	      2.17989      6.45756      6.24933         0.057900      0.026067     -0.046406
O	      4.03059      8.23332      6.20390        -0.021720     -0.014871     -0.023745
O	      4.22860      6.26277      8.21266        -0.049292     -0.028930      0.027322
O	      6.34332      8.24009      8.19309         0.023120      0.184869      0.050977
O	      6.23126      6.25842     10.13027        -0.052598      0.061892     -0.045248
O	      8.32806      8.47111     10.10540         0.058564     -0.032565      0.251139
