# total energy = -224.56488889 eV
 
CRYSTAL
PRIMVEC
0.027854 6.281142 6.178441 
6.329443 0.005191 6.200989 
4.238254 4.220629 -0.014981 
PRIMCOORD
36 1
Li	      6.25948      4.15638      2.08923         0.016358      0.018147      0.019929
Li	      4.28388      6.35994     10.23809        -0.013614     -0.020883     -0.009820
Li	      6.13024      2.03570      4.00624        -0.034525     -0.007186      0.006146
Li	      4.17392      6.16241      2.10806        -0.018445     -0.052099     -0.014531
Li	      8.49356      4.27430      8.22704         0.027351     -0.032421     -0.010318
Li	      4.16216      4.09733      3.96738         0.061597      0.003402      0.010071
Li	      8.40843      6.33178      6.27568         0.002325      0.004645      0.052680
Li	      6.36077      8.47203      6.26363        -0.034028     -0.004139     -0.014134
Li	      8.39351      8.32858      8.29800        -0.052763      0.031605      0.020582
Sc	      4.27045      6.30062      6.22468         0.028930      0.123082     -0.087065
Mn	      2.14611      2.12826      0.05809         0.028913      0.052369      0.117126
V	      6.29743      4.08643      6.03753         0.011009     -0.057424      0.164476
V	      6.41824      4.26067     10.21077        -0.107138     -0.016680      0.149789
Co	     10.55188      4.28441      6.24474         0.081956      0.011047      0.093558
Co	      4.30882      8.41852      8.24025         0.089619     -0.130271      0.009697
Co	      2.21301      2.10128      4.05249         0.054884      0.128296      0.028633
Co	      8.50602      6.30545     10.22637        -0.026544      0.011658     -0.017936
Co	      6.36464      6.33972      8.26084         0.051468      0.036039      0.007783
O	      2.29136      2.08525      1.97425         0.111437      0.004933     -0.172271
O	      4.25807      4.09792      1.99745        -0.096007     -0.073390     -0.216842
O	      4.15233      2.11492      3.97021        -0.194468      0.083443     -0.093363
O	      6.35025      4.18811      4.28816        -0.023828      0.112776     -0.176517
O	      6.27427      2.27682      6.25244         0.010936      0.050772      0.019563
O	      8.27567      4.10838      6.21397         0.098774      0.047339     -0.013290
O	      1.95313      4.21405      4.16559         0.174780     -0.131435      0.000671
O	      4.36627      6.42859      4.07686        -0.034391     -0.095723     -0.018349
O	      4.45089      4.23315      6.19317        -0.067650     -0.029337     -0.009608
O	      6.38724      6.08025      6.26903        -0.018122      0.058664      0.248043
O	      6.32445      4.37801      8.30617         0.015697     -0.020338     -0.067525
O	      8.29722      6.35758      8.28517        -0.052082     -0.057378      0.058201
O	      2.16261      6.40969      6.14730        -0.084740     -0.108339     -0.066927
O	      4.36039      8.41166      6.16923         0.008186     -0.095743      0.032856
O	      4.37495      6.41775      8.25089         0.105725      0.138992      0.034658
O	      6.27281      8.28616      8.23436        -0.141813     -0.031537      0.008165
O	      6.34527      6.24931     10.28723         0.003324      0.054192     -0.047590
O	      8.73914      8.39891     10.44956         0.016886     -0.007077     -0.046541
