# total energy = -101.94488381 eV
 
CRYSTAL
PRIMVEC
3.818721 -0.000410 0.000427 
1.910415 5.265401 -6.890204 
1.909904 4.668144 1.908163 
PRIMCOORD
16 1
Li	      3.81673      0.47323     -0.35392         0.001729     -0.004225     -0.012678
Li	      1.90797      2.81007     -0.32970         0.000259     -0.003198     -0.032501
Li	      3.81746      4.42170     -0.10522         0.001258      0.004069      0.035657
Li	      3.81715      2.09003     -1.98846         0.001401      0.001759      0.013555
Ti	      3.81864      7.29429     -2.47010        -0.002840     -0.119655      0.404441
Ti	      3.81891      5.20274     -4.85395        -0.004745      0.112754     -0.418363
Ni	      1.90835      4.76392     -2.25350         0.001486      0.018185     -0.066102
Ni	      5.72772      7.73289     -5.07137        -0.000454     -0.014836      0.071429
O	      3.81786      5.40462     -2.62326        -0.000597      0.249071     -0.064926
O	      5.72790      7.66880     -2.81641        -0.003770     -0.030367      0.090335
O	      3.81713      2.39176     -0.10088         0.001102     -0.003686     -0.209324
O	      5.72692      4.83952     -0.33315        -0.001404      0.004594      0.205539
O	      1.90796      2.77880     -2.56487         0.002819     -0.126520     -0.430038
O	      1.90886      4.82792     -4.50776         0.003659      0.028489     -0.093632
O	      3.81828      7.09159     -4.70134         0.001265     -0.241194      0.065624
O	      5.72815      9.71819     -4.75994        -0.001168      0.124760      0.440984
