# total energy = -210.79110717 eV
 
CRYSTAL
PRIMVEC
-0.009710 6.289723 6.262544 
6.290493 -0.024036 6.276731 
4.183305 4.192430 -0.005650 
PRIMCOORD
36 1
Li	      6.22005      0.12131      6.15231        -0.023393     -0.055956     -0.020972
Li	      8.18428      2.19086      6.15700         0.091792      0.021926      0.001548
Li	      4.14966      2.05819      2.12700         0.000445      0.001580     -0.032255
Li	      6.39081      8.27846     10.57286        -0.033083     -0.014872      0.014421
Li	      4.32953      2.01385      6.32192        -0.074170     -0.015578      0.013343
Li	      6.41544      3.98180      6.27018         0.015095      0.082235      0.023158
Li	      6.16577      4.32753     10.38650         0.044225      0.050512      0.027084
Li	      8.43495      8.37792      8.51576         0.048960      0.010849     -0.032046
Li	      6.26815      6.22744      8.50944         0.019814     -0.043078     -0.010004
Sc	      4.17324      6.26882      6.32909         0.089884      0.090226      0.104346
Mn	      8.36031      4.16851      8.25294        -0.198202     -0.029749      0.122024
V	      4.21539      4.03858      4.16783        -0.025766      0.024788     -0.233825
V	      6.20125      8.35870      6.44191        -0.077999     -0.076238     -0.189020
Cu	      6.26503      2.11404      8.28508        -0.108928      0.076195      0.027111
Ni	      8.26572      6.34999     10.40683        -0.038291     -0.089581      0.013907
Ni	      2.08183      0.06785      2.09473        -0.091044      0.024360     -0.093581
Ni	      8.43726     10.36940     10.41558        -0.114525      0.195659      0.164842
Ni	      2.07002      2.10338      4.15371         0.016365      0.019734      0.054726
O	      2.02712      2.18664      2.10948         0.114616      0.088470     -0.144482
O	      4.12379      4.19084      2.17795        -0.080462     -0.190390      0.107820
O	      4.17152      2.23279      4.16463         0.050354     -0.158843      0.059010
O	      6.20483      4.24663      4.11982         0.058669     -0.085960      0.202970
O	      6.27570      2.07396      6.36711        -0.002229     -0.012177     -0.036007
O	      8.40217      4.16692      6.39903        -0.016809     -0.041211     -0.144734
O	      2.19953      4.19265      4.12074         0.023823      0.052363     -0.066767
O	      4.16087      6.09204      4.17940         0.015650     -0.012510     -0.019293
O	      4.03003      4.20650      6.15446         0.003165     -0.046875      0.055058
O	      6.27141      6.51431      6.21365         0.033249     -0.033373      0.066892
O	      6.46522      4.13658      8.34259         0.231243      0.170020     -0.036429
O	      8.43458      6.09422      8.37699        -0.007786     -0.018684     -0.089476
O	      2.09865      6.10019      6.25946         0.000974      0.035314     -0.071174
O	      4.42063      8.35125      6.22662        -0.010841      0.024854     -0.007990
O	      4.11376      6.30758      8.36247         0.064601     -0.014902     -0.214535
O	      6.29702      8.41680      8.16300         0.021524     -0.086361      0.249509
O	      6.24856      6.31229     10.43292        -0.002272      0.050244      0.062077
O	      8.38574      8.35682     10.45040        -0.038647      0.007010      0.072741
