# total energy = -210.41154632 eV
 
CRYSTAL
PRIMVEC
0.004611 6.177282 6.245356 
6.502305 0.056237 6.192384 
4.383252 4.131186 -0.010610 
PRIMCOORD
36 1
Li	      6.53523      6.24125     12.30757         0.053225      0.012201     -0.020482
Li	      4.49084      8.24213      8.31551         0.000306      0.031788      0.035039
Li	      8.72082     10.20584     10.24045         0.015415      0.009083     -0.014969
Li	      6.66206      8.25455     10.22247        -0.021139     -0.014608      0.063028
Li	      2.16708      4.10283      2.19664        -0.009051      0.038888     -0.007879
Li	      4.41449      4.13016      4.14651         0.007149     -0.022474      0.034009
Li	      6.41514      4.29116     10.33776        -0.032979      0.003232      0.006879
Li	      8.61908      8.31614      8.39501        -0.034346     -0.029049     -0.017240
Li	      6.41304      6.29128      8.42059        -0.049465     -0.046868      0.042639
Sc	      6.49718      8.28386      6.23111         0.021534      0.059002     -0.070361
Mn	      4.30802      6.15493      6.30587        -0.017984     -0.100347     -0.119467
V	      4.33301      6.19201      2.26281        -0.120282      0.104626     -0.020261
V	      4.46338      1.91175      6.10376         0.069785      0.281333     -0.076398
Cu	      6.54948      4.14152      2.12033         0.011255     -0.000049     -0.043707
Cu	      6.51513      4.15916      6.16838         0.032805     -0.018843      0.086720
Cu	      8.45405      6.26176     10.31837         0.068071     -0.111810     -0.156861
Ni	      2.29923      8.26817      6.18466        -0.025325      0.116768      0.023632
Ni	      2.22414      2.11282      4.10866         0.036138      0.113664      0.031562
O	      6.54083      6.22084     10.31635        -0.182347      0.004433      0.009117
O	      8.67929      8.20031     10.41028         0.037558      0.117741     -0.147743
O	      1.96848      2.01418      2.01068         0.018972      0.020141      0.000942
O	      4.47256      4.35941      2.05454         0.048435     -0.029109      0.014544
O	      4.30596      2.11749      4.35053         0.059995     -0.020299     -0.026506
O	      6.55795      4.26994      4.24160         0.003594     -0.211300     -0.118968
O	      6.29393      2.16807      6.23820         0.099338     -0.029999     -0.002760
O	      8.87612      4.29778      6.20795         0.017103     -0.198152      0.021080
O	      2.16886      4.14885      4.15074         0.030527      0.032245     -0.039472
O	      4.43238      6.22030      4.07740        -0.024280     -0.009821      0.039190
O	      4.22816      4.18982      6.23125        -0.110733      0.095439      0.026495
O	      6.82824      6.17950      6.29235        -0.103367     -0.008479      0.041886
O	      6.58819      3.92276      8.14732         0.012405     -0.028197      0.037778
O	      8.97248      6.22253      8.16525         0.047016     -0.006607     -0.056751
O	      2.12591      6.23163      6.16395         0.038497     -0.090379      0.300373
O	      4.37515      8.07916      6.24756         0.036481      0.006483      0.030703
O	      4.24725      6.20305      8.19810        -0.024017      0.004773      0.028929
O	      6.48074      8.37791      8.28325        -0.010291     -0.075450      0.065279
