# total energy = -210.45175526 eV
 
CRYSTAL
PRIMVEC
0.030992 6.394891 6.432138 
6.119739 0.025932 6.438536 
4.099188 4.288255 -0.003468 
PRIMCOORD
36 1
Li	      8.18479      8.56927     12.81618        -0.034393     -0.010513      0.011511
Li	      6.15003      8.51511     10.74679        -0.070579     -0.003278      0.025742
Li	      4.06607      4.35143      4.45173         0.059223      0.021847     -0.114805
Li	      4.07451      2.22811      6.45083         0.079862     -0.071006     -0.034751
Li	      0.07342      4.23100      4.31062        -0.026768     -0.001954      0.049711
Li	      8.20075      6.52134     10.56663         0.047863      0.078962     -0.020865
Li	      2.14750      4.24264      6.41716        -0.095441      0.048742      0.052426
Li	      4.08148      4.21334      8.49276        -0.063565      0.006549      0.075598
Li	      6.29503      6.44038      8.58392        -0.003936      0.112674      0.025488
Sc	      4.08688      2.15402      2.16004         0.011346     -0.080934      0.231444
Mn	      6.17331     10.63669      8.59843        -0.032626     -0.269425      0.059475
V	      6.18622      6.44659     12.79101        -0.027503      0.190634     -0.015865
V	      8.19659     10.52380     10.75472         0.071875      0.190989     -0.062306
Cu	     10.17782      6.50121      8.62599         0.177649     -0.111707     -0.105671
Cu	      8.10239      4.48450      8.69974         0.080070      0.247190     -0.049084
Cu	      6.11330      6.47625      4.33591         0.049646     -0.005057     -0.231411
Cu	      6.11967      4.37718      6.51344         0.254838     -0.062508     -0.001211
Cu	      4.10734      6.35393      6.33569        -0.323139      0.062112     -0.070661
O	      6.03145      6.49183      6.34436         0.119194      0.073193     -0.091294
O	      6.22562      4.15307      8.51390         0.018597      0.294628     -0.166072
O	      8.18996      8.76418     10.73996         0.027353     -0.138248      0.016372
O	      1.97110      1.90811      2.19459         0.057469     -0.001980     -0.011377
O	      4.17724      4.27364      2.03847        -0.029801     -0.197841      0.052815
O	      3.96949      1.95186      4.26328         0.445045     -0.084163      0.021113
O	      6.16706      4.28752      4.14631        -0.144811     -0.074101      0.040446
O	      6.13681      1.87058      6.46571        -0.030704     -0.079305     -0.038099
O	      8.17308      4.28654      6.32689        -0.167613     -0.016870      0.030753
O	      2.09947      4.15837      4.13092         0.035738      0.105210      0.213236
O	      4.17139      6.46462      4.19059        -0.459814     -0.063061      0.535438
O	      4.22194      4.37164      6.43002        -0.045951      0.048872      0.027536
O	      8.26737      6.48895      8.57922        -0.419550     -0.061508     -0.109140
O	      2.08827      6.38758      6.61974         0.124778     -0.030653     -0.060241
O	      4.10135      8.76794      6.50478         0.022931     -0.088842     -0.055054
O	      4.00913      6.43168      8.73281         0.156948     -0.028781     -0.132973
O	      6.13695      8.71018      8.62886         0.068656      0.021260     -0.070759
O	      6.07563      6.42585     10.85077         0.067113     -0.021129     -0.027468
