# total energy = -217.83357192 eV
 
CRYSTAL
PRIMVEC
0.039585 6.321035 6.261724 
6.243374 0.064123 6.237143 
4.188812 4.223861 0.015872 
PRIMCOORD
36 1
Li	      8.32655      2.22318      6.26017        -0.052565      0.005089      0.020137
Li	      4.09087      2.16559      2.23442        -0.002649     -0.015802     -0.004102
Li	      4.12743      0.17501      4.19196        -0.005553     -0.026639     -0.042115
Li	      2.12650      4.18056      2.11456        -0.024249     -0.018809      0.042541
Li	      2.31193      2.14189      4.14213         0.069841     -0.004990     -0.006639
Li	      4.18671      4.04943      4.17689         0.049923      0.010909     -0.044221
Li	      4.15011      2.07768      6.12674         0.019121     -0.058102      0.059023
Li	      6.29497      4.35152     10.43821        -0.041464      0.006913     -0.074758
Li	      6.29741      6.34191      8.34928         0.005597     -0.027108      0.007186
Sc	      0.10247      2.06509      2.08005        -0.037932      0.002861      0.130362
Mn	      8.29250      6.35757     10.44077        -0.038817      0.129271      0.002014
V	      4.25859      6.44322      6.21581        -0.303563     -0.009427     -0.013838
V	      4.19858      4.23890      8.32310         0.074099      0.062928      0.292593
Fe	     10.24958      4.22835      6.26637         0.222258      0.083328     -0.036723
Co	      2.10674      0.04247      2.09614         0.002089      0.135600      0.116893
Cu	      2.14443      4.22182      6.18825         0.026326     -0.038554      0.083999
Ni	      6.18689      2.15876      4.18713         0.060119     -0.084057     -0.077225
Ni	      6.32574      4.25159      6.14709         0.058073     -0.076642     -0.027412
O	      2.08753      1.99287      2.19155         0.044848      0.010141     -0.058019
O	      4.32582      4.23192      2.01301        -0.001595     -0.039225      0.034659
O	      4.27354      2.12303      4.16417        -0.363808     -0.022497      0.038432
O	      6.28053      4.11822      4.05654         0.012598      0.226054     -0.033506
O	      6.26364      2.13566      6.26748        -0.000388     -0.112944      0.121034
O	      8.37499      4.22667      6.31022        -0.125041     -0.044005      0.043395
O	      2.09591      4.38909      4.22548         0.004256     -0.124733     -0.090086
O	      4.04745      6.37878      4.33320         0.018337      0.019900      0.000125
O	      4.20415      4.40214      6.30725        -0.034881     -0.048643     -0.130941
O	      6.12010      6.27317      6.22828         0.311095      0.399034     -0.002766
O	      6.07699      4.26888      8.31348         0.131005      0.044437      0.009282
O	      8.36210      6.52327      8.31481        -0.061124     -0.078811     -0.132538
O	      2.19621      6.44797      6.41703        -0.122780     -0.207572     -0.042259
O	      4.30079      8.39636      6.27541         0.036502      0.092444      0.027041
O	      4.10647      6.28853      8.19587         0.061150      0.083081     -0.023562
O	      6.45483      8.60376      8.24641        -0.204911     -0.004467     -0.055321
O	      6.33478      6.41731     10.51998         0.043966     -0.214916     -0.011869
O	      8.27181      8.34766     10.30248         0.170118     -0.054048     -0.120818
