# total energy = -218.13915809 eV
 
CRYSTAL
PRIMVEC
-0.020170 6.575130 6.111015 
6.233308 0.009057 6.083348 
4.178148 4.387054 -0.016733 
PRIMCOORD
36 1
Li	      6.21496      6.57038     12.17326        -0.017487     -0.060665      0.017232
Li	      4.26878      8.73408      8.11992        -0.045620     -0.055418     -0.003319
Li	      6.24759      8.58637      9.98883         0.031937     -0.063409      0.023152
Li	      4.13702      4.50852      4.04150        -0.001422      0.070294      0.021140
Li	      6.30199      4.44887     10.05308        -0.042669     -0.003903      0.020106
Li	      8.21615      6.48963     10.05929         0.018577     -0.003412     -0.047532
Li	      4.14371      6.53373      6.19441        -0.007837      0.000031     -0.096162
Li	      8.19065      8.83931      8.04573         0.020727      0.012491      0.009999
Li	      6.19426      6.78734      8.14299        -0.019240      0.051001     -0.005765
Sc	      4.27089      6.56447     10.07450         0.115023     -0.095648     -0.089242
Mn	      6.27233      4.41004      6.13320        -0.131205      0.058464     -0.071272
V	      2.13467      8.50290      6.04605         0.222655     -0.115813     -0.106695
V	      4.21821      2.30100      6.12071         0.033597      0.018445      0.229368
Fe	      6.12173      6.63985      4.03479         0.082560     -0.050922     -0.051018
Co	      4.17250      6.55409      2.02648        -0.108194      0.005002      0.049607
Cu	      2.14308      4.39417      2.12237         0.005087     -0.007427      0.085883
Cu	      6.20695      8.75421      6.08606        -0.064838     -0.031320     -0.095446
Ni	      6.20210      4.29976      2.07320         0.017444     -0.069539     -0.007325
O	      6.18393      8.87921      8.00509        -0.014023     -0.114145      0.068097
O	      1.92698      2.04048      1.96323        -0.110289     -0.018170     -0.052350
O	      4.09269      4.61384      2.04398         0.023505      0.125053     -0.041861
O	      4.16694      2.11970      4.23944        -0.005786     -0.005966     -0.106503
O	      6.26790      4.57748      4.15667         0.021866      0.036275      0.111126
O	      6.29527      2.18142      6.16736         0.005989      0.022674      0.104424
O	      8.24648      4.45979      6.15799         0.003624      0.180114     -0.111017
O	      2.09839      4.23777      4.12758         0.017484      0.117835      0.089434
O	      4.20138      6.61703      3.97241        -0.068771     -0.061688     -0.098338
O	      4.33313      4.22542      6.08311         0.161346      0.017469      0.017457
O	      6.38510      6.65230      6.08485         0.048849     -0.004461      0.093325
O	      6.37877      4.14747      8.06010        -0.019760     -0.046571      0.018506
O	      8.43698      6.66464      7.97161         0.144140      0.106141     -0.080529
O	      2.06692      6.74372      6.06250        -0.017738     -0.051693     -0.055588
O	      3.84422      8.81552      6.17109        -0.221514     -0.006019      0.027073
O	      4.07402      6.55086      8.11266         0.078076     -0.007328      0.114398
O	      6.22972      6.54327     10.11695        -0.109411      0.025101     -0.005500
O	      8.20552      8.83746     10.37800        -0.046683      0.027127      0.025135
