# total energy = -217.48515667 eV
 
CRYSTAL
PRIMVEC
0.014285 6.222271 6.262094 
6.353553 -0.009469 6.285937 
4.214924 4.143122 0.014418 
PRIMCOORD
36 1
Li	      4.17965      2.10056      2.17855         0.015134     -0.002236      0.061673
Li	      4.30095      6.22769     10.46883        -0.014534      0.098504     -0.072699
Li	     10.47598      6.25903      8.43136        -0.061073      0.062925      0.083182
Li	      8.37731      4.26468      8.43826        -0.056706      0.009595      0.116052
Li	      2.15183      2.08653      4.11025        -0.043352     -0.001142      0.020140
Li	      8.46471      6.17248      6.39653        -0.055563      0.102126      0.035976
Li	      6.31978      4.17168     10.32640         0.019534     -0.049099     -0.081685
Li	      8.48608      6.17788     10.28546         0.061001     -0.106409     -0.030301
Li	      8.54476      8.17675      8.43570         0.068159      0.025916     -0.110204
Sc	      6.28154      8.19837      6.25503         0.256649     -0.188471     -0.165514
Mn	      4.22199      4.13779      4.18603        -0.125281      0.283806      0.085109
V	      8.50992      8.37041     12.50273         0.229630      1.170363      0.040033
V	      2.21266      6.26939      8.38085         0.189444     -0.237872      0.076642
Fe	      6.29845      8.19307     10.45330        -0.119905      0.055363     -0.042803
Co	      6.45255      6.19592      8.38693         0.194300     -0.247700     -0.101983
Cu	     10.51572      4.17200      6.33062        -0.062994      0.046550     -0.006564
Cu	      6.35771      4.18864      6.38808         0.047659     -0.063889     -0.150861
Cu	      4.23780      6.18373      6.20098         0.093783      0.145493      0.127948
O	      6.33928      4.29857      8.34207         0.001373      0.017940      0.313957
O	      2.14079      1.97272      1.91336         0.035944      0.169391     -0.443278
O	      4.44241      4.14806      2.26748         0.023120     -0.034966     -0.033941
O	      4.31608      2.19073      4.20924         0.042458     -0.156883      0.038340
O	      6.26929      4.10217      4.16737        -0.033783     -0.079468     -0.161975
O	      6.45757      2.15826      6.25632         0.537203      0.041273      0.122348
O	      8.62124      4.03097      6.31900        -0.505496     -1.364399     -0.080938
O	      2.30569      4.09000      4.18840         0.037958     -0.005879      0.083934
O	      4.25791      6.06330      4.24728        -0.015808     -0.016956     -0.433866
O	      4.14613      4.18090      6.12712        -0.119727     -0.143146     -0.092648
O	      6.41243      6.15887      6.43705         0.144048      0.382126      0.073558
O	      8.33311      6.23432      8.36580         0.028376      0.030628      0.017353
O	      1.93322      6.24891      6.39868         0.072248      0.460143     -0.114097
O	      4.16417      8.23323      6.19761        -0.588081     -0.519948      0.006166
O	      4.05768      6.20942      8.29744        -0.200469      0.056444      0.173870
O	      6.36854      8.29359      8.39707        -0.069471      0.055320      0.028176
O	      6.31749      6.26348     10.30097        -0.015215     -0.078875      0.043334
O	      8.39968      8.24798     10.66303        -0.010565      0.083431      0.575568
