# total energy = -217.99147700 eV
 
CRYSTAL
PRIMVEC
-0.003428 6.111467 6.388460 
6.478174 0.006618 6.377570 
4.330056 4.078700 -0.006550 
PRIMCOORD
36 1
Li	      4.17372      6.12897      2.32302        -0.036896      0.023323      0.000590
Li	      6.25228      6.18327      4.27200        -0.017084      0.002660      0.005966
Li	      8.61482      6.09561      6.46485        -0.034808      0.003731      0.038729
Li	      4.32181      8.05337      4.39049         0.006065      0.006571     -0.005410
Li	      2.39134      6.07988      4.15692         0.002188      0.016365      0.010409
Li	      2.06775      4.09324      6.14087        -0.072297      0.019867     -0.095285
Li	      4.27327      6.16308      6.15602        -0.057583      0.003714      0.015210
Li	      8.62938      8.05617      8.58364        -0.003152      0.022440      0.004121
Li	      6.64919      6.08277      8.59427         0.000655      0.011124      0.011543
Sc	      4.38592      8.09920      8.42110        -0.020403      0.031772     -0.013788
Mn	      8.61218      4.14948      8.57440         0.028547     -0.079234     -0.045479
V	      2.18986      6.13693      8.45901        -0.005927      0.091224     -0.097393
V	      6.30986      4.18107      6.54672         0.074013      0.010418     -0.097568
Fe	      6.53829      8.11116     10.68667        -0.009726      0.094144     -0.054366
Co	      8.65104      4.09597      4.27322         0.137342     -0.015767     -0.103348
Ni	      6.49243      6.14302     12.74572        -0.065538      0.028518      0.035644
Ni	      2.20909      8.14802      6.34376         0.029012     -0.048686     -0.041119
Ni	      4.24784      4.16960      4.24602         0.227939     -0.176855     -0.014772
O	      2.24362      1.98002      2.11536         0.039427      0.007735      0.078123
O	      4.48969      4.10195      2.10401         0.034677     -0.048026      0.083746
O	      4.48824      1.95253      4.21442        -0.081204      0.215197     -0.005633
O	      6.61057      4.07199      4.21753        -0.077860      0.053840     -0.010077
O	      6.58436      2.18368      6.27497        -0.074844      0.092019      0.071858
O	      8.58158      4.07607      6.50402        -0.040768      0.132541      0.161518
O	      2.24141      4.05193      4.10646        -0.153882     -0.010113      0.048819
O	      4.32652      6.11091      4.24629        -0.030137      0.104430     -0.000949
O	      4.55947      4.03696      6.30304        -0.020821     -0.021422      0.011632
O	      6.50730      5.91247      6.34939         0.019386     -0.009369      0.006754
O	      6.40823      4.06191      8.29178        -0.014853     -0.006056      0.110344
O	      8.60111      6.01386      8.52522         0.000828      0.046436      0.019395
O	      2.09545      6.11382      6.53714         0.050454     -0.120453      0.065761
O	      4.30071      8.18317      6.40451         0.091990     -0.107332      0.031147
O	      4.13467      6.09839      8.54425         0.015651     -0.081303     -0.127401
O	      6.47446      8.30051      8.58006         0.049855     -0.085758      0.014382
O	      6.28172      6.15303     10.69622        -0.002644     -0.084503     -0.065616
O	      8.55729      8.30246     10.66674         0.012400     -0.123190     -0.047487
