# total energy = -220.97908126 eV
 
CRYSTAL
PRIMVEC
0.048458 6.367277 6.143265 
6.285431 0.053659 6.138336 
4.218429 4.270129 0.006171 
PRIMCOORD
36 1
Li	      4.29495      8.44869      8.19027         0.025643     -0.046706      0.004814
Li	      8.38903      4.29986      4.11590         0.024658     -0.038351      0.015392
Li	      6.38939      8.50934     10.21155        -0.040118      0.001654     -0.003129
Li	      6.28004      2.30018      8.14829         0.074087      0.021923     -0.001217
Li	      8.24819      4.35104      8.13953        -0.057766      0.016199     -0.019613
Li	      6.36918      4.23198      6.26898        -0.019040     -0.034634      0.047675
Li	      4.30818      6.43068      6.17868         0.048171      0.022250      0.005842
Li	      4.27718      4.23818      8.15921         0.019829      0.135298     -0.107777
Li	      6.33583      6.39930      8.18942        -0.138177     -0.017016     -0.063760
Sc	     10.40591      4.40699      6.18278         0.000215     -0.012330      0.070191
Mn	      6.30807      4.31432     10.16830         0.075510      0.004523     -0.065975
V	      2.33879      6.31965      8.18715         0.086442     -0.057398      0.109255
V	      4.28062      4.23861      4.05324        -0.180418      0.003519      0.171479
Fe	      8.39730      6.48872     10.01465         0.025969     -0.045946      0.364712
Co	      8.39528      6.47507      6.18811        -0.011294      0.033704      0.105061
Co	      2.14486      4.26512      6.13932         0.078352      0.004044      0.150935
Cu	      2.12317      2.12233      4.06560        -0.048618     -0.106194      0.026434
Ni	      8.32940      2.25328      6.19723         0.036291     -0.002248     -0.008518
O	      2.12054      1.95662      2.07125        -0.038313      0.040901     -0.082454
O	      4.34862      4.21982      2.14258        -0.087771     -0.084641     -0.215047
O	      4.15424      2.33701      4.23272        -0.070656     -0.158582     -0.126332
O	      6.18393      4.19980      4.01025         0.191083     -0.168486      0.121161
O	      6.20661      2.16627      6.16082         0.000438      0.104994     -0.016526
O	      8.38737      4.40781      6.13241        -0.167293      0.014871      0.062434
O	      2.16139      4.37619      4.17034        -0.057371      0.364940     -0.089297
O	      4.18907      6.18411      4.14681        -0.089508      0.089626      0.011265
O	      4.08568      4.14264      6.08579         0.102282      0.040181      0.076531
O	      6.45860      6.60869      6.06778        -0.093499      0.063391      0.114983
O	      6.29325      4.29742      8.32897         0.051402     -0.045000     -0.038404
O	      8.41863      6.42185      8.14085        -0.016411      0.024214     -0.318105
O	      2.12604      6.30053      6.21531         0.046312     -0.018098     -0.240520
O	      4.33262      8.53884      6.01364         0.036593     -0.051826      0.166011
O	      4.10022      6.39709      8.23020         0.131990     -0.013221     -0.029406
O	      6.34076      8.65595      8.05247         0.004475     -0.139275     -0.002914
O	      6.41914      6.43830     10.25261         0.067693      0.146031     -0.105911
O	      8.52834      8.45269     10.33266        -0.011181     -0.092311     -0.089269
