# total energy = -103.27738473 eV
 
CRYSTAL
PRIMVEC
2.007934 4.295765 2.017537 
4.065693 -2.154417 -2.053790 
-0.023770 4.424377 -4.266392 
PRIMCOORD
16 1
Li	      4.07313     -1.93444     -2.17881         0.002259      0.003491     -0.023849
Li	      1.93324      2.17660     -0.05129         0.026566      0.032984     -0.015256
Li	      2.10775      0.01752     -2.07958        -0.028151     -0.033888      0.015771
Li	      4.03373      1.97289     -2.00599        -0.002845     -0.002352      0.023696
Ti	      1.99747      4.30141     -2.02924         0.041038     -0.122545      0.312067
Ti	      4.02717      6.61077     -2.35093        -0.037612      0.119971     -0.314303
Ni	      4.02794      0.02919     -4.09470        -0.010215     -0.004023      0.031741
Ni	      4.05477      4.43295     -4.35654         0.009782      0.002964     -0.034399
O	      2.02115      2.39158     -2.20682         0.106563      0.170197     -0.023392
O	      3.97083      4.53314     -2.21420        -0.182735      0.037261      0.085103
O	      1.99591      4.22471     -4.19074        -0.104165     -0.168618      0.023521
O	      4.03034      2.08898      0.06874        -0.000634      0.102600      0.328949
O	      4.05331      0.01909     -2.09272         0.000447      0.000024      0.005384
O	      2.01874      4.39901     -0.18264        -0.000805     -0.104137     -0.325831
O	      4.04141      2.23090     -4.22564         0.000439      0.002397     -0.000709
O	      2.05433      6.37898     -2.16582         0.180067     -0.036326     -0.088493
