# total energy = -220.30925759 eV
 
CRYSTAL
PRIMVEC
0.048953 6.226387 6.264078 
6.347064 0.047654 6.264074 
4.246074 4.165131 0.018201 
PRIMCOORD
36 1
Li	      4.24517      4.12702      0.07561         0.016229      0.028467      0.066477
Li	      2.14489      2.09598      0.03098        -0.051206      0.023348      0.019181
Li	      4.17741      2.16126      2.19330         0.044447      0.056309     -0.035913
Li	      4.33435      6.31186     10.36276        -0.015347     -0.063112     -0.035386
Li	      4.17004      6.23060      2.18989         0.006629     -0.004205     -0.010280
Li	      4.20963      4.06918      4.14902         0.010913      0.009782     -0.020932
Li	      8.47284      6.25168      6.28696         0.035287     -0.047964      0.054318
Li	      8.49977      6.29438     10.34858         0.014755      0.052646     -0.049957
Li	      6.48908      6.25373      8.33872         0.005502     -0.021438     -0.029225
Sc	      6.29545      4.27755      2.17798        -0.103260     -0.001309     -0.061200
Mn	      6.39321      8.32524      6.28325         0.037624      0.117200      0.217665
V	      6.46347      4.00041      6.22271         0.165589     -0.733713      0.493280
V	      6.29486      4.29010     10.43177        -0.154471     -0.222357     -0.126906
Fe	      4.26800      6.28176      6.26980        -0.106744     -0.045704      0.058150
Co	      6.33413      8.18802     10.42196         0.037002     -0.040580      0.130194
Co	      4.30133      4.13239      8.31842         0.000222     -0.103471      0.026271
Cu	      2.34809      4.25532      2.13200        -0.154894      0.007075     -0.153807
Cu	      2.28797      2.14933      4.14514        -0.130779      0.015092     -0.077471
O	      2.18195      2.19186      2.19051         0.030918     -0.175112      0.028923
O	      4.29449      4.20910      2.11028         0.397262     -0.069781      0.082985
O	      4.30856      2.06231      4.18532         0.006403      0.011286      0.018154
O	      6.31831      4.09919      4.37395        -0.068063      0.027668     -0.371675
O	      6.39952      2.21114      6.27040         0.033379      0.435881     -0.150772
O	      8.20084      4.20645      6.29626        -0.103314      0.039720      0.005156
O	      1.99374      4.27954      4.34780         0.099370     -0.073467     -0.069860
O	      4.30479      6.46232      4.24586         0.074526      0.021113     -0.048217
O	      4.44268      4.23067      6.35200        -0.090111      0.023282     -0.035910
O	      6.32133      6.29690      6.18044         0.046335     -0.058456      0.029698
O	      6.24211      4.19135      8.26123        -0.172807      0.033208      0.048363
O	      8.48274      6.28377      8.32381        -0.041602      0.273462      0.012480
O	      2.22284      6.14372      6.33505         0.028084      0.049331     -0.030270
O	      4.18321      8.28848      6.18694         0.026763      0.052222     -0.029340
O	      4.22895      6.12095      8.27135         0.062256      0.035522      0.058052
O	      6.56294      8.31029      8.27634        -0.036267      0.010070      0.090589
O	      6.32562      6.10050     10.45564         0.021960      0.357234     -0.055861
O	      8.54034      8.32928     10.27330         0.027412     -0.019249     -0.046955
