# total energy = -219.81421224 eV
 
CRYSTAL
PRIMVEC
-0.017806 6.478836 6.232860 
6.241383 0.011787 6.203799 
4.164706 4.303776 0.003541 
PRIMCOORD
36 1
Li	      8.17213      2.24843      6.37889        -0.052103      0.028988      0.001693
Li	      3.96238      2.25337      2.19749         0.009845      0.031887     -0.004604
Li	      8.24101      4.40803      4.16854        -0.039244     -0.061939     -0.018728
Li	      6.13688      2.20114      4.14432        -0.009617      0.100406      0.010620
Li	      0.15642      2.10290      2.03598        -0.009749      0.009997      0.007036
Li	      2.10864      4.02488      2.10013        -0.018418     -0.057865      0.030334
Li	      2.10693      2.09830      3.96541        -0.047603     -0.085067      0.008277
Li	      6.31762      4.20132      6.13279        -0.051258     -0.060247     -0.075881
Li	      0.08073      4.37004      4.11980         0.078443      0.018494     -0.045853
Sc	      6.21970      0.03739      6.20464        -0.071862      0.025465      0.028558
Mn	      2.15343      4.34111      6.20783         0.078985     -0.026329     -0.185645
V	      4.22256      6.57896      6.14101         0.044767     -0.080002      0.065419
V	      8.41367      8.61729      8.47328         0.081395      0.023338     -0.103974
Fe	      8.33367      6.33020      6.14699        -0.136186      0.072315      0.223532
Co	      4.19340      4.20636      4.08868        -0.174512     -0.012112      0.112428
Co	      6.19430      6.49378      8.35257        -0.014471     -0.049583     -0.010914
Ni	      2.05018      0.13951      2.11700         0.084801     -0.065715      0.032290
Ni	      8.30659      6.45713     10.33424         0.057011     -0.043953     -0.008113
O	      2.06672      2.12121      2.06957         0.003063      0.142550     -0.041783
O	      4.16248      4.28834      2.11100        -0.095655     -0.105095      0.475983
O	      4.08920      2.18478      4.23064         0.068695      0.811954     -0.237473
O	      6.03039      4.27364      4.10232         0.111687     -0.113047      0.168618
O	      6.11653      2.08338      6.21129         0.063402     -0.079344      0.044504
O	      8.32617      4.38679      6.20574         0.043527     -0.106793     -0.010198
O	      2.24963      4.40008      4.23238        -0.075069     -0.132768      0.073238
O	      4.13713      6.47540      4.34266         0.150534     -0.319701     -0.127921
O	      4.11462      4.40699      6.22420         0.003123     -0.008729     -0.461890
O	      6.18976      6.46303      6.34598         0.068190      0.023570      0.026378
O	      6.01740      4.30135      8.28033        -0.127730     -0.015694     -0.004560
O	      8.20184      6.72471      8.24233        -0.026502      0.059289     -0.119664
O	      2.16933      6.56624      6.21176         0.055146      0.057812      0.006367
O	      4.35025      8.52256      6.23325        -0.046816     -0.011116      0.005016
O	      4.17978      6.29145      8.16404         0.084625      0.011334     -0.018959
O	      6.44470      8.72308      8.16340         0.064458     -0.021159      0.027680
O	      6.29046      6.43971     10.34053        -0.171655      0.018449     -0.016636
O	      8.28887      8.64414     10.19877         0.016753      0.020406      0.144826
