# total energy = -222.94247442 eV
 
CRYSTAL
PRIMVEC
0.049686 6.457119 6.229940 
6.100793 0.021100 6.258764 
4.073640 4.331262 0.006622 
PRIMCOORD
36 1
Li	      8.08509      2.25397      6.16268         0.010096      0.085568     -0.036555
Li	      6.08782      4.27184      2.21455        -0.067639     -0.109763      0.032510
Li	      6.16617      2.26972      4.16878        -0.002184      0.019861      0.035586
Li	      6.15541      6.43403      4.18190         0.003486     -0.093617      0.043129
Li	      8.12920      6.48140      6.30647         0.017458     -0.059162      0.001529
Li	      6.16040      4.34920      6.19966         0.011730      0.088307      0.004476
Li	      8.12661      6.56590     10.29613        -0.016161      0.016326      0.015963
Li	      8.17139      8.63684      8.42317         0.020307      0.016528     -0.062308
Li	      6.21499      6.42670      8.32819         0.015572     -0.006571     -0.020617
Sc	      4.09018      6.45033      6.17981         0.002029     -0.098558     -0.206312
Mn	      6.13099      2.23360      8.35733         0.047519      0.001130      0.054833
V	      6.08907      0.08456      6.20427         0.004571     -0.105179     -0.052315
V	      4.06103      2.11019      2.18588        -0.027997      0.097900     -0.039599
Fe	      2.12056      4.20199      6.17375        -0.032305      0.136368     -0.028101
Co	      8.04215      4.29185      4.15642         0.264465     -0.290981     -0.139299
Co	      2.07650      4.35258      2.12677        -0.075156      0.068481      0.088905
Co	      6.11712      4.37945     10.37905         0.011692      0.007579     -0.031283
Cu	      4.17590      4.24483      4.22364        -0.088791     -0.029598      0.004549
O	      2.09349      2.34917      2.07047        -0.026155      0.094057      0.050950
O	      4.02022      4.20394      2.08342        -0.071506     -0.007503     -0.000843
O	      4.09633      2.03118      4.04456        -0.096107     -0.546696      0.095134
O	      6.08512      4.30176      4.20645         0.365921      0.194294      0.037331
O	      6.14795      1.98121      6.39785        -0.033497      0.054826     -0.004349
O	      8.28838      4.31714      6.42036        -0.156516      0.019280     -0.157066
O	      2.05169      4.34820      4.12111        -0.180971      0.011110     -0.134163
O	      4.09190      6.72741      4.07446        -0.023849      0.234505     -0.014061
O	      4.05985      4.38661      6.25991         0.098754      0.084996      0.097141
O	      6.10908      6.60129      6.22535        -0.042549     -0.113608      0.041644
O	      6.25482      4.40484      8.46698         0.050068      0.010564      0.011600
O	      8.28924      6.32322      8.35324         0.002630     -0.089629     -0.036358
O	      1.92129      6.34175      6.23337         0.114314     -0.038340      0.020347
O	      4.10920      8.67733      6.16607         0.004953     -0.109151     -0.001011
O	      3.99509      6.65406      8.24292         0.036875     -0.140746      0.443540
O	      5.94596      8.63577      8.20843         0.053026     -0.027594      0.099451
O	      6.09145      6.35697     10.52482        -0.157647      0.006256     -0.163147
O	      8.27187      8.72631     10.37871        -0.036434      0.618760     -0.051230
