# total energy = -222.97438573 eV
 
CRYSTAL
PRIMVEC
0.008508 6.306825 6.172467 
6.315096 0.021118 6.159504 
4.229427 4.214629 -0.005080 
PRIMCOORD
36 1
Li	      2.16237      0.03007      2.09599         0.014370      0.035255      0.030211
Li	      8.40771     10.41659     10.23859        -0.061831      0.005651      0.001197
Li	      4.19618      6.35488      2.14241        -0.007880      0.041585      0.006805
Li	      2.02599      2.19118      4.06322         0.011045     -0.094731     -0.001666
Li	      8.38630      6.36337      6.21960        -0.014224     -0.037055      0.014959
Li	      0.13773      4.05313      4.04548         0.048676      0.055703      0.038934
Li	      8.48082      6.35612     10.16581         0.020452     -0.044157      0.062071
Li	      2.14275      4.19727      6.07399        -0.039830      0.001806     -0.034192
Li	      8.39289      8.34939      8.32498         0.058855     -0.016524      0.021090
Sc	      4.28023      8.35306      8.26107        -0.066860     -0.054349     -0.243340
Mn	      8.43565      8.41648     12.30071         0.198891      0.019331      0.189232
V	      6.37103      6.35310     12.25373         0.009949     -0.213776     -0.423402
V	      6.25593      4.25051      6.19031         0.081382      0.096942     -0.038161
Fe	      4.12649      4.29548      4.09494         0.414525      0.031935     -0.050931
Co	      6.32328      2.14992      4.13888         0.297809     -0.268213     -0.438303
Co	      4.21796      6.32349      6.12814         0.043452      0.014794      0.048392
Co	      6.36156      6.31235      8.24529         0.020003     -0.104932      0.066516
Ni	      8.40727      4.27572      8.24046        -0.036295     -0.024243      0.019706
O	      2.18794      2.12255      1.92568        -0.094832     -0.049558      0.002091
O	      4.20896      4.24531      1.86136         0.025399      0.079286      0.267758
O	      4.35728      2.26535      4.09235        -0.232186     -0.157325      0.022602
O	      6.29729      4.09780      4.18891        -0.103130      1.473196      0.067970
O	      6.24338      2.14648      6.09423         0.019296      0.121441      0.278684
O	      8.36842      4.14066      6.14790        -0.026582     -0.051214     -0.114196
O	      2.23357      4.16490      4.10917        -0.148064     -0.044798      0.078164
O	      4.25144      6.24254      4.13790        -0.041131      0.135306     -0.034533
O	      4.40083      4.20964      6.13934        -0.122245     -0.001868      0.053378
O	      6.33707      6.18113      6.28987         0.013349      0.022794     -0.052732
O	      6.33423      4.33388      8.14956        -0.084193      0.040647      0.071283
O	      8.24055      6.28078      8.22562        -0.002583      0.159281      0.050619
O	      2.00557      6.40105      6.18586        -0.039677      0.108909     -0.022697
O	      4.31718      8.59727      6.11806        -0.038605     -0.310822      0.091149
O	      4.35316      6.33020      8.17065        -0.003380      0.008910      0.004525
O	      6.37675      8.29384      8.36188         0.017342     -0.042010     -0.068042
O	      6.26975      6.47132     10.39123        -0.163640     -0.923845      0.217656
O	      8.26797      8.42012     10.40543         0.032375     -0.013352     -0.182795
