# total energy = -215.42372742 eV
 
CRYSTAL
PRIMVEC
0.000743 6.333564 6.158776 
6.271076 0.020440 6.138816 
4.212319 4.241129 -0.017762 
PRIMCOORD
36 1
Li	      6.30403     10.44838      8.24866         0.001441      0.063291      0.024702
Li	      4.40044      8.46884      8.22296        -0.052891     -0.001710      0.001568
Li	      6.36116      8.54459     10.05005         0.032146      0.031502      0.072653
Li	      8.28369      4.23973      8.25866        -0.099663     -0.036128     -0.026934
Li	      4.12515      4.22863      4.02684         0.001376      0.016680     -0.018319
Li	      6.29938      4.22340      6.18145         0.029794     -0.006983      0.087906
Li	      2.09440      6.21822      4.03435         0.025073     -0.041667     -0.020487
Li	      8.32336      8.45905      8.26904         0.133011     -0.001912      0.009664
Li	      6.29685      6.51661      8.26601         0.036113     -0.081763     -0.007493
Sc	      4.18270      6.28563      6.25882         0.063787     -0.066655     -0.004484
Mn	      4.17936      6.34864     10.19699        -0.119260     -0.065005     -0.111861
V	      4.27041     10.55685      6.20448        -0.127879      0.186716      0.078722
V	      8.38530      6.43446      6.19076        -0.028150      0.007535      0.368040
Fe	      2.07732      2.11809      4.00975         0.002684     -0.066224     -0.081551
Cu	      6.26166      2.18358      8.21260        -0.128137      0.104688      0.045488
Cu	      6.31805      8.46642      6.19596         0.084832     -0.028763     -0.176991
Ni	      8.33851      2.18542      6.14471        -0.199102      0.235066      0.161972
Ni	      6.26247      4.25303     10.19337        -0.027074     -0.023939     -0.156896
O	      6.27117      4.14526      8.21649        -0.035551      0.025888     -0.130343
O	      6.32463      8.47763      8.09201         0.017086      0.058618      0.173089
O	      1.93232      2.16532      2.05094         0.417161     -0.054909     -0.115119
O	      4.16771      4.23030      1.84788        -0.013537      0.039131     -0.108715
O	      4.14794      2.02064      4.21389         0.098117      0.078559     -0.165043
O	      6.49258      4.34201      4.05604         0.060174     -0.138455      0.014097
O	      6.19877      2.04484      6.13486         0.033329     -0.118078     -0.069651
O	      8.47816      4.33744      5.98695         0.086785     -0.035802      0.121573
O	      2.06743      4.11527      4.20797         0.081686      0.166157      0.017219
O	      4.25715      6.31761      4.11787        -0.191581     -0.121359      0.173539
O	      4.21811      4.12847      6.10948        -0.042194      0.162299     -0.091583
O	      6.36758      6.28227      6.10302        -0.149886      0.068268      0.108646
O	      8.45068      6.33057      8.02226        -0.248387     -0.161331     -0.179722
O	      2.03238      6.47020      6.08150         0.023521     -0.385999      0.020707
O	      4.12414      8.50451      6.13929         0.312023      0.017329      0.162240
O	      4.22718      6.37571      8.28123        -0.004598      0.048729      0.026329
O	      6.17095      6.35555     10.37144         0.027856      0.042683     -0.029096
O	      8.40011      8.69734     10.28587        -0.100102      0.083545     -0.173866
