# total energy = -214.45440564 eV
 
CRYSTAL
PRIMVEC
-0.088703 6.265391 6.266722 
6.626198 -0.037557 6.216689 
4.375678 4.102619 0.016044 
PRIMCOORD
36 1
Li	      6.52462     10.12681      8.35292         0.002220      0.091697     -0.052251
Li	      4.55770      8.31606      8.29093        -0.036504     -0.024774      0.040726
Li	      6.45737      6.29202      4.36920        -0.016541      0.029194     -0.154908
Li	      8.53647      6.33105      6.23214         0.027660     -0.041460     -0.014800
Li	      6.32009      4.31302      6.27860        -0.036745     -0.069583     -0.028563
Li	     10.92434      8.27906     10.44036        -0.036244      0.014957     -0.008955
Li	      6.51532      8.14515      6.37889         0.026593      0.126301     -0.098051
Li	      4.57719      6.11848      6.22716        -0.094711      0.047188     -0.021678
Li	      8.48011      8.25284      8.11445         0.054333      0.012826      0.090284
Sc	      2.23763      8.29602      6.32165        -0.006382     -0.058885     -0.065841
Mn	      8.80332      4.13269      8.32390         0.088161     -0.022912     -0.061018
V	      8.50004      4.22130      4.08499         0.252093     -0.102811      0.096177
V	      2.12371      6.11618      4.27266         0.227525      0.048824     -0.284623
Fe	      6.58454      2.14663      8.25061        -0.039852     -0.168533      0.216683
Cu	      4.30606     10.30061      6.31313         0.109262      0.032542      0.078098
Cu	      4.34810      4.13409      4.27851        -0.052577      0.032910     -0.232569
Cu	      6.55102      6.23768      8.17251         0.059554     -0.117078      0.230867
Ni	      6.56927      8.22694     10.38099        -0.076834      0.086310      0.226581
O	      4.40838      4.13509      6.13057        -0.041143      0.001507      0.316739
O	      6.53016      6.21532      6.26605        -0.020080      0.021284      0.188286
O	      2.01384      2.22082      2.13856        -0.012980      0.001295      0.047517
O	      4.18123      4.18121      2.32212         0.037373     -0.064189      0.029795
O	      4.47941      1.86187      4.13387        -0.002215      0.112803      0.020137
O	      6.75795      4.10032      4.17792        -0.170776      0.044804      0.013895
O	      6.73446      1.84693      6.27610         0.040087      0.111765     -0.146953
O	      8.98161      4.03998      5.94562        -0.204658      0.070743      0.067651
O	      2.04330      4.34273      4.24128        -0.065559     -0.222695      0.076521
O	      4.03598      6.25441      4.13500         0.275703      0.088346      0.033037
O	      6.84278      4.12990      8.23258        -0.038844      0.280667     -0.087443
O	      8.94485      6.10107      8.40491         0.024490      0.056446     -0.143676
O	      2.09028      6.22154      6.11283        -0.037436      0.036744      0.304395
O	      4.24068      8.37647      6.33153         0.085305     -0.189618      0.039162
O	      4.28323      6.14343      8.62082        -0.057276     -0.028584     -0.214973
O	      6.50493      8.21848      8.38573         0.036088     -0.206223     -0.247341
O	      6.89062      6.22993     10.19285        -0.339890     -0.107660     -0.231273
O	      8.69396      8.23202     10.44781         0.040800      0.075853     -0.021634
