# total energy = -215.89070957 eV
 
CRYSTAL
PRIMVEC
0.013672 6.224541 6.380769 
6.202753 0.019142 6.375430 
4.138580 4.149429 0.009560 
PRIMCOORD
36 1
Li	      2.07450      8.24489      6.36037         0.024737     -0.006870     -0.006747
Li	      2.13976      6.25096      8.42756        -0.023289     -0.013159     -0.087581
Li	      4.16466      8.20506      8.62049         0.002635      0.048870     -0.001316
Li	      6.06178      2.06063      4.30435         0.023663      0.020151      0.023959
Li	      8.27812      4.19626      8.50567         0.055770     -0.026297     -0.033096
Li	      2.18783      2.08821      4.22242        -0.047821     -0.027333     -0.016255
Li	      4.16452      2.11419      6.26438        -0.003643     -0.000151     -0.013086
Li	      2.06288      6.23630      4.30852         0.025846      0.030315      0.011961
Li	      4.09258      6.27399      6.50826        -0.011851      0.035083      0.076983
Sc	      8.23410      8.34313      8.56544        -0.124108      0.028452     -0.043846
Mn	      2.08249      4.17207      6.35592        -0.097788      0.025760      0.009964
V	      4.21525      6.06652      2.18016         0.012548     -0.148337     -0.025334
V	      6.36985      4.22390      6.30569         0.129432     -0.077247     -0.020329
Fe	      4.15726      8.33698      4.31851         0.044965     -0.117659     -0.069043
Ni	      6.23273      6.27903     12.70272        -0.124949      0.036097      0.087541
Ni	      4.12017      0.09716      4.20051        -0.073556     -0.043046      0.037358
Ni	      4.10597      4.05427      4.28586         0.062915      0.142708     -0.111199
Ni	      6.22479      6.25279      8.52036         0.028522      0.035495     -0.003655
O	      1.84527      2.06604      2.09140        -0.039385     -0.003147     -0.007185
O	      4.10698      4.27030      2.09971         0.024389      0.193491      0.010705
O	      4.13733      2.09343      4.21777        -0.002413     -0.045994      0.037533
O	      6.14430      4.15884      4.46568         0.006294     -0.012459      0.146152
O	      6.20363      2.19985      6.55197         0.038542     -0.023179      0.010290
O	      8.19221      4.16542      6.38000        -0.121951      0.029212      0.079808
O	      2.04989      4.12023      4.41718        -0.133105      0.064297      0.111760
O	      4.14336      6.28006      4.02149         0.005712      0.005938     -0.116967
O	      4.07931      4.18444      6.36973        -0.021953      0.008555      0.165296
O	      6.19698      6.18185      6.46765         0.034990      0.264732     -0.098896
O	      6.23739      4.14369      8.43752        -0.045469     -0.147690      0.001733
O	      8.42619      6.25254      8.51826         0.067482      0.010538      0.009467
O	      2.04409      6.06942      6.37506         0.116424     -0.145071     -0.028738
O	      4.27210      8.31968      6.30109         0.099376     -0.104985      0.059296
O	      4.15242      6.23035      8.54523        -0.076114     -0.113632     -0.101834
O	      6.20170      8.27359      8.30487         0.060905      0.148883     -0.075733
O	      6.20991      6.19984     10.61937         0.092670     -0.001176     -0.004597
O	      8.38084      8.35136     10.63350        -0.010420     -0.071143     -0.014367
