# total energy = -103.05808198 eV
 
CRYSTAL
PRIMVEC
0.000041 2.097228 2.096408 
6.288428 4.238177 -6.332823 
-4.223184 2.133249 -2.132508 
PRIMCOORD
16 1
Li	      2.03490      8.36440     -6.26361         0.004596      0.007050     -0.009221
Li	     -2.19869      4.15727     -2.06087        -0.019774     -0.025456      0.024545
Li	     -0.00901      4.24131     -4.24109        -0.007204     -0.000871      0.001800
Li	      4.05056      6.26099     -6.25862         0.022132      0.020293     -0.021697
Ti	     -0.18653      2.08497     -2.08655        -0.596622     -0.100583      0.110463
Ti	      2.21306      4.23210     -2.13452         0.218233     -0.040789      0.041954
Ni	      2.12942      6.44112     -4.34040        -0.071664     -0.066691      0.062537
Ni	      4.28199      4.33565     -4.33315        -0.029296     -0.045819      0.044947
O	     -0.14039      6.35599     -4.25878        -0.295977     -0.064961      0.066225
O	      0.11014      4.14352     -2.04769         0.040535     -0.020519      0.029017
O	      2.04059      4.14921     -4.15083        -0.039914     -0.112752      0.121458
O	      0.05498      2.25877     -0.16150        -0.014438      0.149362     -0.158214
O	      2.09269      2.25437     -2.25438         0.002997      0.088863     -0.098189
O	      2.03609      6.32612     -6.32248         0.111473      0.110699     -0.110099
O	     -1.97157      2.18706     -2.18649         0.586053     -0.017936      0.014095
O	      4.12706      6.31678     -4.21735         0.088870      0.120110     -0.119621
