# total energy = -222.52338331 eV
 
CRYSTAL
PRIMVEC
0.044865 6.288084 6.124317 
6.421590 0.015052 6.154672 
4.285720 4.216499 0.005729 
PRIMCOORD
36 1
Li	      6.34263      4.23208      2.11357        -0.046147      0.035684      0.054010
Li	      4.20338      2.26858      2.09815        -0.168626      0.109763      0.013972
Li	      6.47218      8.37708     10.16993        -0.008180     -0.048249     -0.054795
Li	      2.24606      4.16834      2.17754         0.045444     -0.032766      0.074910
Li	      2.17128      2.19565      3.98093        -0.024414      0.023941     -0.056004
Li	      4.20495      4.15282      3.97954        -0.055286     -0.034593      0.056981
Li	      8.58924      6.33059      6.18886         0.045894     -0.033530      0.015805
Li	      6.50863      4.22969     10.18977         0.075368      0.010259      0.002058
Li	      8.57983      6.25791     10.17604         0.030771     -0.069870      0.023839
Sc	      4.29067      6.33833      6.07874        -0.008698     -0.010788     -0.067448
Mn	      2.18724      4.19387      6.09171         0.025937     -0.027688     -0.203702
V	      4.38682      6.38998     10.16390        -0.263778      0.041043     -0.114423
V	      6.44235      4.19654      6.08162         0.006422     -0.163155      0.013009
Fe	      2.13203      2.08401      0.04924         0.037079      0.038400     -0.129382
Fe	      4.29090      6.21003      2.17675         0.141515      0.020667     -0.042274
Co	      8.60739      8.40537      8.21051         0.073897     -0.035543      0.031509
Cu	      6.57185      6.30615      8.23884         0.002078     -0.056631     -0.025242
Ni	      4.29355      4.21542      0.01763         0.023071      0.032783     -0.008635
O	      2.04033      2.13305      1.96979         0.086016     -0.001204      0.165909
O	      4.26649      4.27156      2.01945         0.010319     -0.134962      0.088297
O	      4.27673      1.88128      4.06355        -0.057851      0.130669     -0.002067
O	      6.46995      4.20086      4.28918        -0.001988      0.037441     -0.148535
O	      6.51577      2.18375      6.17909        -0.079567      0.040633     -0.029171
O	      8.49112      4.15347      6.09173         0.016069      0.100702     -0.042994
O	      2.17829      4.18461      4.24940         0.005439      0.001657     -0.001599
O	      4.34950      6.30127      4.09504         0.005381      0.055513      0.185969
O	      4.40360      4.20460      6.22511        -0.030801     -0.078016      0.025860
O	      6.42417      6.23025      6.22619         0.125641      0.246183      0.033044
O	      6.32182      4.23531      8.07646        -0.046828      0.079925     -0.005660
O	      8.75340      6.49401      8.21612        -0.047515      0.016249     -0.030214
O	      2.16607      6.33166      6.08666         0.061882     -0.115672      0.025570
O	      4.27543      8.41012      6.17984        -0.009196     -0.062168      0.025070
O	      4.20694      6.14438      8.22401        -0.128425     -0.031339      0.009185
O	      6.66868      8.33005      8.06266         0.048645      0.028699      0.107640
O	      6.31950      6.31704     10.21062         0.103458     -0.027577      0.028106
O	      8.56678      8.59886     10.20060         0.006974     -0.086460     -0.018596
