# total energy = -222.57182464 eV
 
CRYSTAL
PRIMVEC
0.007458 6.433097 6.369538 
6.211204 -0.020362 6.396837 
4.120629 4.286487 0.006688 
PRIMCOORD
36 1
Li	      2.20925      6.29895      8.47992        -0.045443     -0.033068     -0.011832
Li	      4.14710      8.46975      8.54942        -0.023458     -0.010700      0.013207
Li	      4.14225      6.40626     10.51435        -0.001617     -0.043287      0.010555
Li	      6.23497      6.44012      4.40482        -0.024665      0.032149      0.043746
Li	      6.23150      4.37631      6.33295         0.070316     -0.015225     -0.002877
Li	      2.03955      6.41710      4.29390         0.017643     -0.030488      0.074035
Li	      6.17014      8.53400      6.45099        -0.045542     -0.004534      0.035677
Li	      4.16529      6.43106      6.48136        -0.024398      0.033890      0.032882
Li	      4.04120      4.46881      8.50570        -0.001564      0.065072      0.022301
Sc	      6.11293      6.52666      8.47357         0.025013      0.110122      0.024194
Mn	      4.14683      8.58478      4.29044         0.064306      0.013668      0.024035
V	      2.08175      8.46541      6.33557        -0.009718      0.009433      0.103782
V	      4.26653      4.30767      4.41016         0.141484      0.290014     -0.310032
Fe	      4.10765      6.40509      2.14121         0.064532     -0.098061     -0.141118
Fe	      2.10012      4.21711      2.14867         0.086897     -0.060733     -0.053915
Co	      6.21292      8.55401     10.56557         0.224310     -0.073476      0.043810
Cu	      6.21784      6.37641     12.72280         0.029435     -0.003162      0.025007
Cu	      4.11275      2.12738      6.34788         0.130142      0.013381      0.034342
O	      1.99920      2.20091      1.99815        -0.002639     -0.000869     -0.023709
O	      4.07686      4.34172      2.30347        -0.042228     -0.040120     -0.018324
O	      4.10608      2.40655      4.33439        -0.045722     -0.030016     -0.021196
O	      6.04818      4.25100      4.27815        -0.195337      0.217905      0.099503
O	      6.22152      2.17975      6.39535         0.013820      0.170332      0.205193
O	      8.36109      4.02220      6.47746        -0.061691     -0.212399      0.006377
O	      2.03966      4.27352      4.17470        -0.231400      0.026890      0.019848
O	      4.10558      6.23267      4.13654         0.006345     -0.000971      0.002754
O	      4.08051      4.45530      6.13573        -0.001137      0.112863      0.146519
O	      6.29779      6.37292      6.41651        -0.094902      0.056463      0.014103
O	      6.24017      4.18716      8.67153        -0.002080      0.045942      0.109464
O	      8.33945      6.26476      8.36097        -0.142728     -0.014491      0.063901
O	      1.95070      6.63663      6.40779         0.024949      0.009266     -0.077507
O	      4.06401      8.50997      6.24166        -0.033156     -0.168702     -0.143379
O	      4.15259      6.42873      8.50721         0.036405      0.006800     -0.013993
O	      6.21257      8.55074      8.56728         0.038637     -0.079525     -0.368683
O	      6.23522      6.50724     10.60427        -0.053427     -0.331692      0.007728
O	      8.37513      8.55410     10.76630         0.108619      0.037326      0.023602
