# total energy = -222.16972200 eV
 
CRYSTAL
PRIMVEC
0.002968 6.305090 6.189028 
6.362360 -0.036046 6.227844 
4.223470 4.211274 -0.005849 
PRIMCOORD
36 1
Li	      8.35875      2.18823      6.18674        -0.027332      0.012284     -0.130456
Li	      2.19432      0.11361      2.14798         0.014838     -0.076709      0.062157
Li	      8.41357     10.37410     10.37372        -0.012481     -0.071044      0.009595
Li	      6.47440      8.41562     10.39456        -0.038292      0.105756      0.020917
Li	      6.43403      2.22948      8.22139        -0.046621      0.016859      0.022532
Li	      8.34044      4.10313      8.25801        -0.007504      0.076779      0.014010
Li	      8.51953      6.22817      6.27016         0.069410     -0.035705      0.014070
Li	      6.26878      4.18795     10.26895        -0.025503      0.016510      0.008087
Li	      8.56086      8.36782      8.35025         0.023664     -0.005702      0.001928
Sc	     10.44209      4.29282      6.21657        -0.136712      0.146757     -0.075530
Mn	      4.23418      6.31692      6.20341        -0.170262     -0.060495     -0.227606
V	      4.26078      4.13365      4.01736        -0.009714     -0.225800      0.248984
V	      6.36026      8.40008      6.28053         0.121370      0.254266     -0.511272
Fe	      8.45134      6.48856     10.26003         0.201026     -0.204985      0.097026
Fe	      6.39722      6.13107      8.32542         0.016046      0.040750      0.060330
Co	      2.13976      2.07718      4.13759        -0.121842     -0.177873     -0.596317
Ni	      4.15506      2.05068      2.09071         0.211446      0.064384      0.045152
Ni	      6.47166      4.06589      6.22932        -0.129146      0.068728     -0.113563
O	      2.15187      2.08378      2.25495        -0.142588      0.005797      0.348861
O	      4.23827      4.18294      2.20362         0.035328      0.041650     -0.136063
O	      4.09659      2.19763      4.13102         0.994752      0.395705      0.027306
O	      6.22125      4.30995      4.19697        -0.403775     -1.030331     -0.096121
O	      6.34622      2.06082      6.23238         0.009975     -0.315614      0.066670
O	      8.48206      4.15574      6.20310         0.215898     -0.000129      0.093636
O	      2.22835      4.06522      4.26106         0.177444      1.081474      0.360969
O	      4.27122      6.21490      4.23109        -0.724037     -0.109245      0.055650
O	      4.15189      4.27217      6.06085        -0.083369      0.076823      0.098976
O	      6.38267      6.35839      6.15304         0.030260     -0.033993     -0.090204
O	      6.33694      4.22856      8.22335        -0.003994      0.012411      0.179864
O	      8.37716      6.26100      8.35863        -0.046184     -0.001012     -0.161178
O	      2.08872      6.14751      6.09949        -0.056863      0.057993      0.178978
O	      4.36516      8.36866      6.18851         0.071845     -0.094964     -0.022767
O	      4.32238      6.31701      8.11800        -0.012224     -0.075697      0.041438
O	      6.34159      8.32674      8.07875         0.050101     -0.048127      0.120418
O	      6.42171      6.28626     10.30837        -0.042073     -0.012372      0.003601
O	      8.49314      8.33590     10.35410        -0.002885      0.104868     -0.020080
