# total energy = -224.84395935 eV
 
CRYSTAL
PRIMVEC
-0.026120 6.317444 6.270856 
6.310782 0.020255 6.225226 
4.211924 4.185459 0.008567 
PRIMCOORD
36 1
Li	      6.28287      6.35857     12.45835        -0.015422      0.007633      0.006368
Li	      2.09907      4.24630      2.18827         0.066167     -0.061171      0.042360
Li	      4.08489      4.22409      4.18529        -0.022377     -0.035632      0.001764
Li	      8.29819      6.32514      6.35695        -0.023415     -0.007549      0.048628
Li	      6.32710      4.22844      6.29212         0.018883     -0.007067     -0.030409
Li	      6.36216      4.30079     10.33365        -0.010780     -0.003509      0.007885
Li	      8.33904      6.22846     10.32918        -0.008682     -0.008055      0.046127
Li	      8.43330      8.31910      8.34737         0.003043     -0.059709      0.020168
Li	      6.43540      6.16780      8.36014         0.053523     -0.076929      0.025017
Sc	      4.28432      6.24279      6.25171         0.032029      0.016906     -0.053066
Mn	      6.31659      8.35185      6.26637        -0.040641      0.005846     -0.057748
V	      8.39528      2.23634      6.16178         0.086571      0.024964      0.031363
V	     10.39477      6.40206      8.39257         0.157846     -0.149991      0.096528
Fe	      6.26711      4.24257      2.10350         0.034193      0.112183     -0.047143
Fe	      6.22778      8.33415     10.41019         0.023740      0.177274     -0.039897
Co	      4.19655      2.15297      2.07850        -0.061724      0.128250     -0.051477
Co	      4.19274      6.31602     10.36060        -0.011298     -0.029663     -0.048105
Cu	      6.34806      6.29078      4.24931        -0.063624      0.053063      0.041703
O	      2.05114      2.11289      1.90929        -0.065068      0.018511     -0.129595
O	      4.30729      4.33496      2.10511        -0.136974      0.034678      0.002280
O	      4.22110      1.97698      4.06102         0.035680     -0.070333      0.090649
O	      6.45755      4.20930      4.10563         0.046605     -0.070835      0.041240
O	      6.42182      2.14190      6.19244        -0.009811     -0.001890      0.014081
O	      8.46736      4.05992      6.06066        -0.007644      0.073302     -0.060437
O	      2.08781      4.09892      4.35710        -0.054412      0.101565      0.009509
O	      4.27339      6.28980      4.12451        -0.067114      0.007827     -0.068471
O	      4.03901      4.23567      6.27115         0.003405     -0.077079      0.020097
O	      6.26689      6.23528      6.42637         0.076006     -0.010273      0.154700
O	      6.34889      3.99346      8.33280        -0.005898      0.147977     -0.024914
O	      8.55771      6.22997      8.36651        -0.152922     -0.006009     -0.005634
O	      2.13351      6.52874      6.26462        -0.037453      0.043911     -0.011168
O	      4.19367      8.43509      6.34987         0.021993     -0.019883     -0.130639
O	      4.07850      6.39828      8.41387         0.022566     -0.137101      0.059059
O	      6.25836      8.55224      8.30424         0.095174     -0.068975     -0.011325
O	      6.14735      6.40429     10.34304        -0.039564     -0.129873     -0.014343
O	      8.28140      8.52967     10.43291         0.057397      0.077636      0.024842
