# total energy = -226.61315221 eV
 
CRYSTAL
PRIMVEC
-0.025112 6.219603 6.325362 
6.254237 -0.005903 6.304660 
4.166572 4.130074 -0.001137 
PRIMCOORD
36 1
Li	      0.00015      6.19519      6.30405         0.003946      0.006202     -0.024119
Li	      6.27667     10.31545      8.48701        -0.001220      0.015410      0.014057
Li	     10.26675      6.29389      8.49166         0.006378      0.023215      0.021625
Li	      8.19984      4.20666      8.45940         0.000879      0.016019      0.077279
Li	      4.02660      4.19474      4.24164         0.045648     -0.012560     -0.004224
Li	      6.24544      4.12899     10.25193         0.011669     -0.018237     -0.045287
Li	      4.17163      6.18099      6.42115         0.022975      0.005604      0.033465
Li	      4.26757      4.10354      8.37831         0.006215      0.009618     -0.014374
Li	      6.28141      6.11476      8.42967         0.008323     -0.015184      0.010165
Sc	      5.99779      6.20352      4.16534         0.007788     -0.014516      0.009869
Mn	      8.36634      6.16484      6.47977         0.048190     -0.020513      0.052971
V	      2.07344      8.22311      6.37235        -0.015045      0.005570      0.023992
V	      4.23428      2.19526      2.11299        -0.052066     -0.132641     -0.011980
Fe	      4.25390      6.16497     10.41242        -0.015664     -0.002669      0.114477
Fe	      2.13128      4.18818      6.33196        -0.112201      0.023748      0.050273
Co	      6.27758      8.28193     10.49802        -0.024899     -0.027976      0.030304
Co	      6.17754      4.14171      6.41874        -0.024066      0.002469      0.023874
Co	      8.32070      6.18518     10.43485         0.070338     -0.010596     -0.146298
O	      2.15223      2.03018      2.01400         0.000141     -0.027332     -0.017147
O	      4.14955      3.95385      2.17259        -0.011840      0.059185     -0.024637
O	      4.30481      1.99975      4.19185         0.026154      0.042105     -0.020673
O	      6.36538      4.08417      4.25769        -0.030672     -0.050159     -0.006281
O	      6.36058      2.02819      6.12914         0.004413     -0.000430     -0.060965
O	      8.39514      3.89990      6.16697         0.007055      0.037819      0.033072
O	      1.99571      4.20395      4.31132         0.011391      0.004180     -0.021101
O	      4.04802      6.19953      4.17175         0.011141     -0.009269      0.009640
O	      4.04742      4.17582      6.34088         0.117462     -0.044498      0.006805
O	      6.23613      6.31199      6.22089        -0.035947     -0.084431     -0.017223
O	      6.24454      4.13141      8.33293        -0.002109     -0.005736     -0.032585
O	      8.32184      6.17956      8.52684        -0.017685      0.013407      0.066314
O	      2.06739      6.31782      6.19569        -0.005583      0.012655     -0.035009
O	      4.13192      8.27293      6.48549         0.030389      0.030488     -0.016709
O	      4.15057      6.38187      8.53151        -0.021301      0.042143     -0.097524
O	      6.16334      8.33231      8.46632        -0.021147      0.034430     -0.006405
O	      6.30730      6.35191     10.49897         0.001735      0.052554      0.008899
O	      8.23247      8.21817     10.56979        -0.050784      0.039923      0.015458
