# total energy = -219.53763625 eV
 
CRYSTAL
PRIMVEC
-0.004246 6.619001 6.224572 
6.203632 0.020763 6.200284 
4.132372 4.394031 0.016986 
PRIMCOORD
36 1
Li	      6.07652      4.57815      2.18947        -0.029150      0.036607     -0.013104
Li	      4.07037      2.29771      2.21164        -0.032441      0.002399      0.004168
Li	      8.14038      4.53581      4.26110        -0.034712      0.048749      0.028940
Li	      4.20532      6.32684      2.20062         0.085694     -0.004557      0.017461
Li	      6.11782      6.36729      4.15447         0.012116      0.003336     -0.066330
Li	      4.23054      4.57877      4.08645         0.026199      0.035365      0.040861
Li	      6.21677      4.37362      6.12124         0.031765      0.012384     -0.037984
Li	      4.14352      8.51829      4.19318         0.068035      0.018344      0.041477
Li	      4.16542      6.59829      6.02220         0.030339     -0.015334      0.015057
Sc	      2.12490      4.27057      2.13281         0.051289     -0.043325      0.004671
Mn	      8.26597      8.82021      8.32522        -0.025869     -0.050792     -0.076381
V	      2.02611      4.51096      6.13798         0.079494     -0.052068      0.001727
V	      6.05360      6.62197      8.35615         0.203413     -0.065064     -0.064445
Fe	      2.07293      8.73545      6.27242         0.037120      0.006571     -0.125558
Fe	      6.10117      2.42927      4.17832        -0.098639     -0.078612     -0.125416
Cu	      4.14624      2.21281      6.17430        -0.021777     -0.078879     -0.073240
Ni	      4.12315     10.98275      6.25370        -0.054849      0.026088     -0.065245
Ni	      2.20480      6.61975      4.11950        -0.082926     -0.062779     -0.066842
O	      4.16449      6.62159      4.09675         0.130851      0.006450     -0.002714
O	      2.07915      2.19833      1.97750        -0.001992      0.030257      0.074026
O	      4.08355      4.35190      2.05740         0.011964      0.012564      0.127626
O	      4.18771      2.15527      4.24940        -0.032034     -0.005182     -0.045571
O	      6.19947      4.29775      4.16612         0.010238      0.164728     -0.037990
O	      6.21847      2.09257      6.16130         0.108446      0.067132      0.053987
O	      8.29114      4.12871      6.21649        -0.088296     -0.036815     -0.002508
O	      2.06776      4.53075      4.23110        -0.018644     -0.091141      0.053466
O	      3.94250      4.58544      6.38451        -0.070067      0.081653      0.103219
O	      6.25741      6.88750      6.38033        -0.060555     -0.002448      0.113825
O	      6.10547      4.73376      8.22309        -0.083558     -0.025253     -0.016243
O	      8.14220      6.54846      8.17987         0.010440      0.005978      0.019828
O	      2.04006      6.61920      6.18833         0.097289      0.016260      0.065937
O	      4.28413      8.87117      6.22758        -0.050139     -0.076548     -0.015245
O	      4.32773      6.70087      8.30204        -0.202304      0.082166     -0.015905
O	      6.29765      8.69680      8.29274         0.025312     -0.008997      0.067361
O	      6.28407      6.77006     10.14275        -0.029896     -0.063248     -0.002213
O	      8.23745      8.74349     10.30215        -0.002158      0.104014      0.019295
