# total energy = -218.85232316 eV
 
CRYSTAL
PRIMVEC
-0.010959 6.146909 6.446163 
6.307032 -0.032084 6.467650 
4.213708 4.121370 -0.031134 
PRIMCOORD
36 1
Li	      4.22392     10.16426      6.48339        -0.003087      0.030393      0.023162
Li	      2.20487      2.04516      0.12677         0.012206     -0.037356      0.007592
Li	      6.31127     10.05647      8.62416         0.007504      0.035988      0.022922
Li	      4.33929      8.19047      8.51960        -0.045251      0.000499     -0.019586
Li	      6.20762      8.26246     10.54357         0.025761     -0.023910     -0.002982
Li	      6.28224      2.01433      8.54638         0.010305      0.014151     -0.001005
Li	      4.20184      8.22049      4.40692        -0.052915      0.004017      0.134985
Li	      6.20357      8.24741      6.62460        -0.047944     -0.043142     -0.015770
Li	      8.25235      8.23887      8.60329         0.043984     -0.093256      0.048198
Sc	      2.06342      2.00449      4.17783        -0.072295      0.043410     -0.022035
Mn	      4.22834      2.07218      6.43232        -0.048635     -0.011108     -0.052057
V	      2.15933      4.10650      2.16856        -0.008496     -0.002756      0.063114
V	      8.23995      6.27453     10.84188         0.015491      0.166714      0.008403
Fe	      6.35546      4.01624      6.42613         0.038684      0.071414     -0.038313
Fe	      4.18019      6.26334      6.54971         0.011220     -0.220492     -0.069604
Cu	      4.20270      4.04957      4.24479         0.002550      0.006173     -0.011383
Cu	      6.26684      6.23636      8.57500         0.005364     -0.069887      0.109674
Ni	      4.28017      6.10439     10.65678         0.073330     -0.094321     -0.044606
O	      6.31467      8.13946      8.57486         0.007253      0.106231     -0.014421
O	      1.98701      2.16648      2.14660         0.003840     -0.004157      0.023109
O	      3.99913      4.12062      2.17611         0.048386      0.023748     -0.161548
O	      4.16864      2.04440      4.25680        -0.007099      0.013738     -0.041514
O	      6.50323      4.07675      4.34116         0.102521      0.013870     -0.032489
O	      6.13365      2.09463      6.53364        -0.033882     -0.101041     -0.021250
O	      8.41562      4.19802      6.49901         0.007365      0.062303      0.105839
O	      1.95308      4.16986      4.12194        -0.124834      0.023144     -0.021460
O	      4.11468      6.04062      4.38878         0.054857      0.056688      0.024458
O	      4.30562      4.06041      6.32610         0.036028      0.034403      0.097481
O	      6.39238      6.12264      6.28264         0.039392     -0.013409     -0.140977
O	      6.50644      4.24733      8.43369        -0.013726     -0.022333     -0.043238
O	      8.41668      6.10945      8.85609         0.021009      0.007045     -0.047314
O	      2.16727      6.10793      6.19976        -0.026614     -0.058734      0.119466
O	      4.20160      8.10954      6.44007        -0.010815      0.133957      0.022859
O	      4.25356      6.08080      8.54053        -0.036871      0.027008     -0.075821
O	      6.45891      6.14361     10.88040        -0.046778      0.049203      0.051679
O	      8.45839      8.03802     10.74747         0.012190     -0.128195      0.014434
