# total energy = -218.83036695 eV
 
CRYSTAL
PRIMVEC
0.050753 6.236260 6.617235 
6.068166 0.099539 6.567386 
4.085555 4.163158 0.026205 
PRIMCOORD
36 1
Li	      4.08279      4.16237      0.06672        -0.109332      0.051389      0.077224
Li	      6.07074      4.17177      2.32353        -0.009922      0.100653      0.113790
Li	      6.16073      8.43149     10.91921        -0.082278      0.026472      0.076644
Li	      4.09625      6.25264      2.34594        -0.009346      0.047682      0.027732
Li	      4.15398      4.25884      4.30387         0.004353     -0.125338     -0.061372
Li	      6.08477      4.31587      6.56850         0.042636     -0.017151     -0.023833
Li	      6.09750      4.20413     10.88623        -0.079208     -0.034237     -0.075875
Li	      4.13463      6.20381      6.54225         0.070584     -0.117409     -0.127840
Li	      4.11985      4.25002      8.83785         0.091938     -0.035522     -0.006192
Sc	      2.10581      8.29192      6.60177        -0.128824      0.481349     -0.132226
Mn	      2.10892      6.22083      4.42033        -0.052519      0.267844     -0.279320
V	      4.18793      2.22399      6.53070         0.090374     -0.796736      0.486624
V	      6.05559      8.39094      6.65274         0.383073      0.067162      0.245384
Fe	      2.08397      4.12388      2.22996        -0.185185      0.154868     -0.206854
Fe	      6.07175      6.26256      8.84817         0.126222     -0.199426      0.126635
Cu	      4.06320      2.13411      2.24010        -0.121724     -0.158785      0.104071
Cu	      4.07764      6.26729     10.91627         0.197016     -0.014905      0.297637
Cu	      6.01204      6.20209      4.39832         0.017759      0.050809      0.047956
O	      4.13022      6.38686      8.90473        -0.170008     -0.084146     -0.446093
O	      2.08001      2.15900      2.07885        -0.292751     -0.330456     -0.195845
O	      4.00454      4.07004      2.24866         0.382723      0.165480      0.024001
O	      4.00361      2.17886      4.76776        -0.140339      0.057702     -0.750105
O	      6.19047      4.28556      4.42028        -0.147888     -0.116625     -0.004490
O	      5.96208      2.18602      6.60437         0.747477     -0.080012      0.037710
O	      8.14308      4.32006      6.61565        -0.012160     -0.130138      0.229002
O	      2.07350      4.22080      4.49425        -0.029342     -0.402960      0.492571
O	      4.03756      6.22620      4.42617         0.283099     -0.036410     -0.030568
O	      3.95893      4.05952      6.65656        -0.399292      0.843602      0.076766
O	      6.21026      6.40391      6.74126        -0.382108      0.676007      0.001694
O	      6.17181      4.31663      8.77412        -0.154460     -0.161371      0.030200
O	      8.13131      6.24333      8.61932        -0.089869      0.281955      0.363443
O	      2.08628      6.17896      6.62109        -0.108070     -0.987061      0.086561
O	      4.23120      8.32079      6.49275         0.306847      0.034681      0.020327
O	      6.09716      8.33577      8.62715         0.087559      0.225055     -0.612820
O	      6.16488      6.35946     10.85238        -0.108497      0.031871      0.014302
O	      8.14196      8.24342     11.09538        -0.018538      0.264110     -0.026843
