# total energy = -218.62461490 eV
 
CRYSTAL
PRIMVEC
0.016621 6.397230 6.124293 
6.285759 0.019806 6.120732 
4.200288 4.272729 0.003610 
PRIMCOORD
36 1
Li	      4.18251      4.30019      0.06650        -0.016507     -0.003850      0.023296
Li	      4.23925      2.28021      2.11808        -0.002191      0.050760      0.041449
Li	      6.30733      8.52746     10.11298         0.004268     -0.039491     -0.007775
Li	      4.22018      6.33125      2.10337         0.022573     -0.018097      0.037483
Li	      2.15337      4.25648      2.13923        -0.010468     -0.024779     -0.025303
Li	      2.08507      2.14909      4.00752         0.001440     -0.003007     -0.034250
Li	      4.16816      4.30340      3.96313        -0.044131      0.060322      0.035278
Li	      8.38012      8.54032      8.21539         0.013235     -0.007312     -0.000507
Li	      6.32727      6.41730      8.21278         0.017863     -0.052546     -0.039504
Sc	      6.24324      8.55087      6.13929        -0.070977     -0.033687      0.015051
Mn	      4.20587      6.39588      6.12575        -0.003323      0.020504      0.082074
V	      2.07975      2.14302      0.07871         0.110619     -0.028629      0.130043
V	      4.27552      2.16305      6.17352        -0.055696     -0.072302     -0.075011
Fe	      4.27577      6.42159     10.10719         0.007576      0.020625      0.011607
Fe	      6.30298      4.28721      6.18756        -0.005377      0.141351      0.069087
Ni	      6.22529      4.22378      2.13164         0.137201      0.055934     -0.035901
Ni	      8.35104      6.39974     10.08495        -0.075339      0.074322     -0.037429
Ni	      6.30960      4.28051     10.08850         0.000556     -0.012993     -0.078752
O	      2.10240      2.11312      1.86675         0.003327      0.006107     -0.030660
O	      4.33311      4.26710      2.06858        -0.115876      0.017410      0.008111
O	      4.22056      2.01413      4.30263         0.026332      0.057011      0.064446
O	      6.43010      4.32294      4.14873        -0.044790     -0.002683     -0.009507
O	      6.31392      2.24566      6.11317        -0.048693     -0.059427     -0.013413
O	      8.36293      4.24211      6.10247         0.050007      0.019479      0.010170
O	      2.06021      4.34336      4.07371         0.145896     -0.114421      0.032062
O	      4.15009      6.45481      4.21913         0.085883     -0.100452      0.042393
O	      4.22426      4.17388      6.08005         0.003969      0.017386     -0.021011
O	      6.35892      6.41226      6.14247        -0.055883     -0.000857     -0.022926
O	      6.26738      4.28326      8.05921        -0.032407      0.016060      0.000940
O	      8.42687      6.39125      7.99424         0.009088     -0.014962     -0.096797
O	      2.12147      6.49048      6.10523        -0.016177     -0.046331      0.022549
O	      4.11660      8.48249      6.11414         0.043063      0.032727      0.037755
O	      4.07701      6.39432      8.11936        -0.001557     -0.045857     -0.137520
O	      6.29614      8.60512      8.14693        -0.016041     -0.022671     -0.063879
O	      6.23403      6.35265     10.16713         0.045500      0.091438      0.013494
O	      8.41749      8.57485     10.35220        -0.112964      0.022919      0.052860
