# total energy = -223.53945406 eV
 
CRYSTAL
PRIMVEC
-0.021244 6.406603 6.160444 
6.324590 -0.006810 6.146367 
4.220453 4.265477 -0.008155 
PRIMCOORD
36 1
Li	      8.33269      2.32136      6.13838         0.052619      0.043274      0.057698
Li	      8.40117      4.26497      4.21310         0.052028      0.045873     -0.062563
Li	      0.10890      2.15373      2.01545         0.045837      0.027663      0.041082
Li	      8.40653      4.22909      8.12687        -0.000321     -0.002948      0.084119
Li	      4.29250      4.29912      4.16607         0.013843     -0.026332     -0.031694
Li	      6.29164      4.24587      6.12004        -0.044431      0.024875     -0.014319
Li	      2.25733      4.27357      6.13329        -0.011590     -0.034449     -0.040275
Li	      4.24222      6.12780      6.12904         0.000641      0.017117     -0.026614
Li	      4.18280      4.24331      8.13362        -0.031233     -0.031455     -0.001137
Sc	      4.30209      2.20375      6.14619        -0.082480      0.105653     -0.093771
Mn	      6.32137      6.39737      4.11345        -0.131071      0.066960      0.030433
V	      4.12184      8.44711      4.24399         0.227270      0.159646     -0.069451
V	      6.22588      6.26564      8.16108        -0.022017     -0.150796     -0.026829
Fe	      2.05773      6.40793      8.15954         0.157503      0.119756      0.107886
Fe	      4.24213      2.20006      2.02553        -0.089449     -0.015412      0.089551
Fe	      2.07833      6.39674      4.16063        -0.163398     -0.294276     -0.117094
Cu	      6.27792      0.09159      6.17946         0.008617     -0.047575      0.168926
Cu	      6.39170      2.21974      4.13235        -0.006520      0.100376      0.078538
O	      2.21402      2.06847      2.12984        -0.063428      0.013540     -0.203685
O	      4.32570      4.18366      2.10783        -0.044790      0.101053      0.000740
O	      4.31434      2.15941      4.03908         0.101183     -0.016994     -0.010368
O	      6.39913      4.47566      3.98496         0.024270      0.000318      0.078978
O	      6.37124      2.17262      6.10204         0.045880      0.141994     -0.037031
O	      8.56725      4.33225      6.16267        -0.115521      0.035682      0.049185
O	      1.89366      4.14858      4.09890        -0.042922      0.050308      0.028812
O	      4.06741      6.49627      4.05216        -0.101806     -0.057030     -0.016317
O	      4.21611      4.21080      6.13897        -0.005474     -0.060484      0.034221
O	      6.34674      6.36415      6.13576         0.051267     -0.021506      0.225941
O	      6.23111      4.37238      8.33388        -0.014705      0.086655      0.028931
O	      8.16048      6.39321      8.24899        -0.015865     -0.016937     -0.051607
O	      1.96417      6.34712      6.15641         0.135049     -0.054721      0.054482
O	      4.13643      8.55110      6.06093         0.008790     -0.177620     -0.043078
O	      4.35278      6.53455      8.14233        -0.035616     -0.066485     -0.020998
O	      6.26860      8.57717      8.28807         0.081104     -0.097496     -0.195501
O	      6.34785      6.19707     10.13235        -0.042050     -0.082524     -0.080248
O	      8.42840      8.39020     10.25392         0.058787      0.114301     -0.016941
