# total energy = -209.97720440 eV
 
CRYSTAL
PRIMVEC
-0.018731 6.311772 6.249757 
6.252612 0.005837 6.224881 
4.175923 4.198998 -0.003712 
PRIMCOORD
36 1
Li	      6.14388      4.25750      2.07438         0.024479     -0.014368      0.024567
Li	     10.32562      6.28533      8.22293        -0.084203     -0.002314     -0.037242
Li	      2.15960      4.24142      2.11655        -0.052234      0.101602     -0.021013
Li	      2.10025      2.23171      4.03277        -0.033861      0.075302      0.024172
Li	      4.03035      4.19875      4.00304         0.001148      0.029565      0.002209
Li	      8.36485      6.29042      6.42578         0.036677     -0.089037      0.019163
Li	      6.24715      8.39913      6.23685         0.042233     -0.028893      0.012543
Li	      8.35173      8.21815      8.29082         0.002596     -0.047373      0.017544
Li	      6.41432      6.33416      8.23798         0.063144     -0.010851      0.004017
Sc	      6.36246      4.23572     10.24777         0.025510     -0.060796     -0.216301
Mn	      6.22250      2.12208      4.13623         0.222324     -0.002551     -0.008938
V	      4.09944      0.04559      4.07159         0.002113     -0.226456      0.072539
V	      4.18465      6.18691      6.18190         0.162157     -0.157279     -0.099916
Ni	      4.19853      4.21091      0.06713         0.023113     -0.010073      0.024231
Ni	      2.09100      2.09409      0.08634        -0.039157      0.028373     -0.049367
Ni	      8.37107      6.25245     10.26924        -0.061220      0.093281      0.015417
Ni	      4.15181      2.16683      2.09228        -0.335723      0.547292     -0.187519
Ni	      6.26513      4.17863      6.33694        -0.049418      0.126521      0.100193
O	      8.34336      6.31126      8.32041         0.042073     -0.095162     -0.115694
O	      2.25020      2.11374      2.07346        -0.280652     -0.215227      0.132135
O	      4.17774      4.08284      2.01310         0.145954      0.323674      0.161224
O	      4.28597      2.02504      4.19544        -0.006167      0.047502     -0.073795
O	      6.32322      4.04861      4.22487        -0.016430     -0.091183     -0.141323
O	      6.30111      2.09172      6.10748        -0.116341      0.004752     -0.219839
O	      8.35081      4.17591      5.98261         0.024887      0.038650     -0.067695
O	      2.06393      4.23628      4.21044        -0.037895     -0.129288     -0.005244
O	      4.17214      6.31648      4.33230         0.110500     -0.008277      0.125106
O	      4.13727      4.42622      6.31878        -0.059543      0.033914     -0.042371
O	      5.98780      6.30078      6.29232        -0.139216      0.052998     -0.037798
O	      6.24982      4.18097      8.30359         0.010524      0.002651      0.227047
O	      2.24216      6.34528      6.22230         0.042852     -0.030595      0.059898
O	      4.13309      8.31115      6.24037         0.108308     -0.021064      0.095443
O	      4.12515      6.41503      8.44598         0.019544     -0.333915      0.094552
O	      6.08273      8.42875      8.49679         0.495801     -0.139410      0.183239
O	      6.18107      6.41108     10.45699        -0.145539      0.115099     -0.112723
O	      8.20462      8.49116     10.35408        -0.148336      0.092937      0.041540
