# total energy = -227.67609469 eV
 
CRYSTAL
PRIMVEC
0.007901 6.340846 6.155409 
6.335127 0.002966 6.160350 
4.221707 4.228935 0.004143 
PRIMCOORD
36 1
Li	      6.37155      6.42110     12.21181        -0.013764     -0.006859     -0.006127
Li	      2.15418      6.32615      8.22040         0.074082     -0.071794     -0.009373
Li	      6.31515      2.10959      4.19233         0.015860      0.004885      0.059915
Li	      6.32051      6.26775      4.19058         0.026605      0.031933      0.031624
Li	      4.26605      2.14307      6.11811         0.028332      0.025770      0.003333
Li	      6.32887      4.22948      6.14649         0.004886     -0.016478      0.013683
Li	     10.48882      8.44580     10.27825        -0.004381      0.001404      0.029276
Li	      2.14761      6.37012      4.10668         0.033601     -0.007323      0.013952
Li	      4.23611      6.35043      6.06670        -0.007715     -0.008943     -0.072937
Sc	      2.05608      4.25584      6.04792        -0.003165      0.015068      0.006383
V	      4.21596      2.11164      2.05863        -0.150364      0.068083     -0.057399
V	      8.41763      4.23989      8.20295         0.109406     -0.093349     -0.008217
Fe	      2.03345      8.27370      6.09964         0.109242      0.146405     -0.063547
Fe	      8.44179      4.28183      4.20907        -0.116015     -0.038552      0.038821
Fe	      4.45356      4.31060      4.16613        -0.166679     -0.174606      0.063661
Fe	      8.47781      8.42637      8.21743        -0.068612      0.082677     -0.020713
Fe	      6.34924      6.33579      8.20856        -0.058024      0.093811      0.048020
Co	      4.25166      6.30739      2.05959        -0.246680      0.109167     -0.009860
O	      2.11947      2.24318      1.98363         0.530427      0.019525      0.057406
O	      4.10397      4.13065      2.12900         0.003228     -0.254428     -0.007189
O	      4.21578      2.10519      4.06051         0.017172      0.110742      0.058546
O	      6.37904      4.23254      4.12251         0.038012      0.029756     -0.003814
O	      6.44083      2.10664      6.28372         0.045463     -0.117665     -0.845564
O	      8.45682      4.22107      6.29517        -0.024157      0.007477      0.094559
O	      2.13731      4.22621      3.94027        -0.002044      0.014682     -0.133309
O	      4.24662      6.22031      3.99228         0.127281     -0.052936      0.838848
O	      4.19348      4.23052      6.19484         0.016842      0.017130     -0.053434
O	      6.30829      6.43025      6.25743         0.002822     -0.006226     -0.097858
O	      6.36031      4.27642      8.21492        -0.018221      0.241117      0.050491
O	      8.42537      6.33196      8.23119        -0.362226      0.003871     -0.050148
O	      2.10393      6.34836      6.13756        -0.025166     -0.060381      0.005044
O	      4.16959      8.44346      6.22594        -0.062798     -0.017629     -0.037344
O	      4.25688      6.34915      8.28108        -0.001114     -0.032447     -0.045157
O	      6.39228      8.42657      8.17866         0.034607     -0.019752      0.032623
O	      6.18890      6.35626     10.20137         0.134917      0.006952      0.044088
O	      8.45120      8.53862     10.22893        -0.021660     -0.051088      0.031718
