# total energy = -225.58998349 eV
 
CRYSTAL
PRIMVEC
0.004568 6.340726 6.328249 
6.256753 0.018831 6.313981 
4.188267 4.234541 -0.004407 
PRIMCOORD
36 1
Li	      2.18872      8.42400      6.33244         0.002837     -0.037320      0.007912
Li	      2.11033      6.33743      8.34395        -0.023989      0.005380     -0.004111
Li	      4.18547      8.44412      8.35977         0.025081     -0.054175      0.004799
Li	      4.18952      4.20499      4.28808        -0.023268      0.024537     -0.005303
Li	      4.15215      2.20497      6.30033        -0.030892      0.034577     -0.015196
Li	      4.18580      8.44638      4.32037         0.040847     -0.051219      0.046281
Li	      2.13146      4.26130      6.37472         0.055936      0.005602      0.038971
Li	      4.13950      6.37553      6.37154        -0.012279      0.056444      0.046227
Li	      4.11627      4.26544      8.33817        -0.052681      0.008992     -0.015394
Sc	      2.18699      6.36361      4.32084         0.069975     -0.030228      0.028718
V	      6.22941      2.16230      4.20043        -0.068599      0.000208     -0.030829
V	      6.16135      6.41519      8.35317         0.081307      0.035563     -0.004898
Fe	      4.21224     10.37202      6.36106        -0.010277      0.156661     -0.063714
Fe	      6.29034      2.11845      8.37099        -0.031495      0.086629      0.017581
Fe	      8.36591      4.22644      8.37418         0.066022     -0.004481      0.042480
Fe	      2.15483      2.19393      4.24448        -0.071746     -0.056328      0.020847
Fe	      6.09068      4.25984      6.28316         0.173361      0.012618      0.011073
Ni	      8.36127      4.20446      4.26214        -0.002896     -0.000254     -0.052018
O	      2.02554      2.17916      2.20506         0.101723     -0.088912     -0.119586
O	      4.12882      4.34723      2.02074         0.073473     -0.059628      0.059607
O	      4.16438      2.06613      4.20442         0.105782      0.102459     -0.002334
O	      6.31733      4.29959      4.26837        -0.168041      0.014151     -0.088404
O	      6.23931      2.18093      6.31987        -0.005605     -0.022820     -0.043875
O	      8.39624      4.24049      6.36644        -0.048134      0.004576     -0.000621
O	      2.12774      4.19234      4.11757        -0.014152      0.086959     -0.005647
O	      4.23420      6.39346      4.07274        -0.005250      0.009954      0.052955
O	      4.23848      4.25735      6.31896        -0.227974      0.061867     -0.000638
O	      6.28200      6.32474      6.36181        -0.038095      0.021951      0.030936
O	      6.32166      4.26594      8.32280        -0.027419     -0.011227      0.052399
O	      8.26696      6.27917      8.47263        -0.017504      0.067442     -0.057150
O	      2.00551      6.33505      6.31526         0.081840      0.029705      0.004728
O	      4.17991      8.52254      6.32769         0.027271     -0.262028      0.024918
O	      4.39311      6.31089      8.46716        -0.124788     -0.017686     -0.039269
O	      6.28018      8.32494      8.52678        -0.025159      0.009285     -0.016242
O	      6.27029      6.39165     10.48097         0.084578     -0.046128      0.048406
O	      8.23406      8.47185     10.53260         0.040210     -0.093125      0.026394
