# total energy = -229.20554529 eV
 
CRYSTAL
PRIMVEC
0.030194 6.263924 6.315923 
6.359593 0.011977 6.334081 
4.245943 4.194578 0.001630 
PRIMCOORD
36 1
Li	      6.38745      4.22643      2.17760         0.072998      0.012808      0.037674
Li	      8.41361      4.22774      4.20925        -0.083208     -0.034181     -0.008839
Li	      6.33508      2.15274      4.22837        -0.003864      0.078619     -0.005469
Li	      4.25585      6.28392      2.13019        -0.007180      0.009849     -0.023303
Li	      6.37205      6.19916      4.25020         0.034099     -0.007829      0.013690
Li	      6.37504      4.22971      6.24727         0.013822      0.060472     -0.079282
Li	      2.15042      6.26693      4.21669        -0.016632     -0.006362      0.011730
Li	      4.29993      6.26431      6.30518         0.064912     -0.015967      0.018087
Li	      6.37250      6.28942      8.44884        -0.007457      0.029181      0.031711
Sc	      4.27695      4.24099      8.49602        -0.076465      0.117076      0.043799
V	      8.44156      4.22464      8.47733        -0.033548     -0.095295      0.020986
V	      4.28278      8.30631      4.20892        -0.055883     -0.030769      0.008398
Fe	      6.41282      6.30445     12.55787        -0.051295     -0.055460      0.132262
Fe	      8.39332      2.04157      6.33018         0.104590      0.018815     -0.024965
Fe	      4.28990      8.23964      8.54951         0.011552      0.042622     -0.081429
Fe	      4.44532      4.31782      4.18067        -0.066910     -0.063371      0.043847
Fe	      8.43146      6.28310      6.28134         0.083642      0.003392     -0.106976
Fe	      6.38844      8.34160      6.32915        -0.025074      0.105522     -0.013688
O	      2.22063      2.13123      1.97530        -0.049646      0.034334      0.045893
O	      4.13335      4.09928      2.14853        -0.067570      0.052349     -0.068967
O	      4.26030      2.17630      4.22119         0.042879      0.027178      0.106745
O	      6.29734      4.20883      4.23026         0.106525     -0.013315      0.009889
O	      6.40210      2.02494      6.31644        -0.149834      0.060229      0.009420
O	      8.53908      4.20749      6.42693        -0.022647     -0.034787     -0.035092
O	      2.07997      4.20128      4.20668         0.076232     -0.004636      0.011313
O	      4.25967      6.27860      4.21288        -0.013762      0.080155     -0.024060
O	      4.17995      4.15634      6.29807         0.086738      0.056630     -0.003343
O	      6.47530      6.38228      6.29182        -0.040859     -0.054015     -0.005593
O	      6.40090      4.19561      8.47227         0.026504      0.001850     -0.056733
O	      8.50922      6.31467      8.29854         0.021235      0.008256      0.055931
O	      2.05538      6.28237      6.32841         0.000136     -0.115839      0.011116
O	      4.28708      8.39511      6.34199        -0.039260     -0.019974      0.018810
O	      4.26813      6.30755      8.43692         0.039695     -0.160750      0.008233
O	      6.35945      8.38561      8.33543         0.049168     -0.000607      0.069875
O	      6.37373      6.14025     10.64666        -0.001674     -0.029389     -0.131352
O	      8.60176      8.36293     10.60469        -0.021959     -0.056792     -0.040318
