# total energy = -211.87347380 eV
 
CRYSTAL
PRIMVEC
0.007354 6.313356 6.285391 
6.249973 0.033290 6.259688 
4.178950 4.204337 0.009459 
PRIMCOORD
36 1
Li	      6.31876      6.30605     12.36223         0.007518     -0.023750     -0.088666
Li	      2.15030      8.34749      6.20804        -0.038272      0.003196     -0.173618
Li	      6.27531      8.38485     10.45615         0.097162     -0.056619     -0.044637
Li	      2.05744      2.17436      4.20139         0.052611     -0.062323      0.029767
Li	      4.12204      8.49826      4.36748        -0.136387      0.149098     -0.042189
Li	      2.14859      6.23252      4.29756        -0.136808      0.103569      0.053271
Li	      1.99926      4.24541      6.21131         0.052884      0.016260     -0.068185
Li	      4.14978      6.42468      6.10972        -0.019624     -0.003294     -0.032736
Li	      6.31243      6.36464      8.42578        -0.086825      0.053781      0.094250
Sc	      4.22731      8.37092      8.24598         0.109187     -0.284532      0.318978
Ti	      6.30012      4.32434      6.27455         0.175471      0.510026     -0.631099
Mn	      4.12265      4.22490      4.21584         0.484192     -0.354698      0.316987
Fe	      2.11496      6.30752      8.16483         0.012808      0.000849      0.188672
Co	      8.40116     10.49232     10.49250        -0.084484      0.087344     -0.183669
Cu	      4.18145      6.31290      2.11300         0.132425      0.106761      0.171575
Ni	      2.07158      4.21462      2.16011         0.029695     -0.055574     -0.192735
Ni	      8.35587      6.32974      6.28558        -0.147127     -0.017092     -0.138858
Ni	      8.30464      8.41546      8.44133         0.104758      0.062563      0.124908
O	      2.05702      2.07408      2.10558        -0.235638      0.001901     -0.006988
O	      4.20186      4.17251      2.26611         0.005357      0.083030      0.029240
O	      4.15991      2.12294      4.22197         0.046737      0.511762     -0.170211
O	      6.23682      4.20053      4.27892        -0.300486     -0.039214      0.235602
O	      6.21181      2.24085      6.45302         0.096326      0.030011     -0.101683
O	      8.26996      4.25103      6.18545        -0.139263     -0.067226      0.139856
O	      2.27453      4.19937      4.16570        -0.100885     -0.008586      0.130053
O	      4.18219      6.12989      4.06632        -0.006210     -0.104455      0.129995
O	      4.26581      4.22082      6.16835        -0.081677      0.085564     -0.288814
O	      6.27117      6.18788      6.34288        -0.034213     -0.331113      0.063354
O	      6.26071      4.20241      8.26275         0.004867     -0.216510      0.216853
O	      8.42724      6.33223      8.34343         0.202695      0.002886      0.060902
O	      2.08302      6.34015      6.32322         0.016514     -0.050573     -0.101476
O	      4.19775      8.39120      6.31759         0.004318      0.029981     -0.092104
O	      4.10226      6.29100      8.55314         0.018676      0.288770     -0.012533
O	      6.29668      8.52648      8.37063        -0.356064     -0.125517     -0.104622
O	      6.02519      6.36967     10.43253         0.202944      0.005144     -0.001777
O	      8.32700      8.66930     10.43225         0.046816     -0.331420      0.172336
