# total energy = -210.22187298 eV
 
CRYSTAL
PRIMVEC
-0.083967 6.394145 6.368838 
6.227923 0.003477 6.279473 
4.139651 4.191672 0.014653 
PRIMCOORD
36 1
Li	     10.30552      4.31309      6.36182         0.028392      0.030324      0.027329
Li	      1.99387      2.15599      0.15368        -0.039050     -0.014562     -0.003911
Li	      6.08747      4.37157      2.19478        -0.035120      0.004960      0.043434
Li	      3.97921      2.27299      2.16897         0.018979     -0.007481     -0.008183
Li	      8.17857      4.31346      4.34326        -0.038831     -0.005280      0.044400
Li	      0.06304      1.99397      2.01145         0.011901     -0.002530     -0.069572
Li	      4.22523      4.14561      4.04012        -0.001190     -0.051354     -0.016589
Li	      4.26248      2.01754      6.20463         0.023881      0.004208     -0.101469
Li	      6.24247      4.10942      6.23518        -0.004553     -0.071823     -0.007882
Sc	      2.03183      4.35690      6.28816         0.022101     -0.216628     -0.041136
Ti	      6.13020      6.31811      8.39260        -0.353992     -0.073974     -0.115987
Mn	      8.25558      8.41795      8.44557         0.086966      0.364182      0.141652
Fe	      4.03802      8.41876      4.35402        -0.100858      0.200259     -0.153417
Co	      8.26356      6.37222     10.49860         0.127031     -0.201424      0.608478
Ni	      6.12475      2.19291      4.26678         0.071994     -0.021313     -0.070868
Ni	      2.14911      4.10096      2.06180        -0.100020      0.056287      0.049130
Ni	      6.26519      6.17713      4.16607         0.003749      0.114836      0.147332
Ni	      4.06941      6.36261      6.33579         0.176437      0.002777      0.198182
O	      4.04577      4.24682      2.06668         0.278120      0.006964      0.000168
O	      6.22646      2.12932      6.16989         0.013724     -0.048649      0.303249
O	      8.28365      4.21143      6.46429        -0.005441      0.007059     -0.278008
O	      2.01655      2.14829      2.20239        -0.068601     -0.114719     -0.105238
O	      4.11994      2.09700      4.20040        -0.013570      0.017555     -0.013868
O	      6.21319      4.19432      4.21674        -0.056721      0.046956     -0.015184
O	      1.96843      4.36524      4.17334        -0.119097     -1.213053      0.173641
O	      4.01604      6.43008      4.28178         0.212777     -0.151411     -0.131779
O	      4.11051      4.28638      6.54971        -0.093085     -0.041320      0.069926
O	      6.18355      6.38398      6.48181         0.029162      0.120352      0.152679
O	      6.09534      4.34414      8.50275        -0.117806      0.132997      0.045345
O	      8.19314      6.46865      8.55175        -0.060976     -0.021831     -0.291816
O	      2.05107      6.36380      6.15921        -0.186930      0.110126     -0.067130
O	      4.10955      8.41731      6.28342         0.131054      0.086600      0.107566
O	      4.19796      6.19888      8.45695         0.276542     -0.148391      0.057330
O	      6.28428      8.35754      8.47287         0.076527     -0.125689     -0.157950
O	      6.30634      6.33435     10.41296        -0.339433     -0.141763     -0.180399
O	      8.25109      8.32016     10.39911         0.145936      1.366752     -0.339451
