# total energy = -215.46876086 eV
 
CRYSTAL
PRIMVEC
0.017968 6.096709 6.505059 
6.237907 -0.006775 6.530382 
4.152756 4.074966 0.001666 
PRIMCOORD
36 1
Li	      0.11126      5.95931      6.45569        -0.148798      0.116545     -0.003720
Li	      2.19200      8.10203      6.52458        -0.066508      0.182618      0.091366
Li	     10.35645      6.13707      8.77434         0.094288      0.224922      0.005680
Li	      2.07394      4.04902      2.17530        -0.171374     -0.103001     -0.082356
Li	      1.98398      2.16080      4.30425        -0.017031     -0.067035      0.028223
Li	      4.22030      8.00143      4.68160         0.042000      0.001324     -0.081121
Li	      6.06651      8.16217      6.40873         0.143885     -0.153640     -0.067796
Li	      4.19667      6.19304      6.46130         0.082994     -0.135461      0.035809
Li	      8.31099      8.06962      8.73227         0.240987      0.068129     -0.072300
Sc	      4.25720      6.02204     10.85678        -0.246036      0.091121      0.432538
Ti	      2.10388      6.15964      8.50053         0.009722      0.589240     -0.057191
Mn	      4.13809      4.12857      4.34903         0.183561      0.114438      0.452345
Fe	      8.30668      6.11306      6.65578        -0.163900     -0.120327     -0.248447
Co	      6.24539      2.04279      4.37604         0.201372     -0.202037      0.224078
Co	      6.23338      4.07541      6.52471        -0.033225      0.184969     -1.067580
Cu	      8.35101      6.10458     10.84783         0.073539     -0.147825     -0.065449
Ni	      4.15967      8.15567      8.55587        -0.177468     -0.001017     -0.009863
Ni	      6.26316      6.09535      8.62453        -0.155793     -0.407303     -0.171244
O	      4.16041      8.14591      6.55678         0.025155      0.005956     -0.060593
O	      2.09428      1.92926      2.25437        -0.030876     -0.365836     -0.034782
O	      4.26135      4.07383      2.40401         0.125194      0.066559     -0.004470
O	      4.28121      2.11341      4.36842        -0.128672      0.085486     -0.028889
O	      6.18770      3.99608      4.46598        -0.155917      0.727603     -0.328907
O	      6.17118      2.11390      6.32762        -0.035630     -0.097075     -0.151007
O	      8.14232      4.11066      6.42952         0.496216      0.043265     -0.043373
O	      2.25579      4.13634      4.36793         0.068266      0.030597     -0.056979
O	      4.11215      6.00961      4.35290        -0.083514     -0.056146     -0.015100
O	      4.30240      4.04661      6.31250        -0.360087      0.010184     -0.139108
O	      6.29537      6.00397      6.52365         0.047983      0.156366      0.005981
O	      6.19208      4.08251      8.31456         0.060443     -0.026067      0.994603
O	      8.30123      6.10733      8.53458         0.077555      0.007002      0.186513
O	      2.06104      6.06484      6.73203         0.018612     -0.007760      0.341875
O	      4.08931      6.08279      8.78513        -0.134866     -0.056064     -0.029329
O	      6.22303      8.19131      8.92617         0.060847      0.121754      0.016098
O	      6.30146      6.18815     10.80875         0.084082     -0.700161      0.017399
O	      8.22691      8.07776     10.87443        -0.027008     -0.181323     -0.012903
