# total energy = -215.85680519 eV
 
CRYSTAL
PRIMVEC
-0.006831 6.268923 6.361666 
6.190496 -0.030025 6.385052 
4.098536 4.165774 0.008697 
PRIMCOORD
36 1
Li	      2.13488      6.31293      8.49976         0.006481      0.000796     -0.021165
Li	      4.04083      8.22419      8.52947        -0.063562     -0.029988     -0.039810
Li	      2.01940      4.17090      2.27340         0.021009      0.010791      0.027972
Li	      2.08502      2.16325      4.26178        -0.019389      0.028657      0.073577
Li	      4.02100      2.19067      6.37763         0.009082     -0.039059      0.000156
Li	      0.04901      4.13165      4.15401        -0.014286      0.012743     -0.021392
Li	      4.11984      6.25409      6.52558        -0.018779      0.030752      0.198630
Li	      4.13859      4.16709      8.45315         0.014730      0.024930      0.067403
Li	      6.15567      6.26575      8.45754         0.006908     -0.034996     -0.015146
Sc	      6.08203      4.28487      6.42558         0.222230      0.025061      0.094448
Ti	      4.07950     10.31880      6.44377        -0.063443     -0.105997     -0.039476
Mn	      6.20287      2.09280      8.51627         0.113270      0.040364     -0.113997
Fe	      4.11118      6.26127     10.46584        -0.032729     -0.068680      0.163899
Co	      2.02889      2.07555      0.02166        -0.026894      0.042928     -0.155128
Co	      6.13284      8.32799     10.29758         0.174321     -0.156373     -0.083597
Cu	      4.09788      4.13052      4.27699         0.106228     -0.065489      0.060265
Cu	      2.07879      6.25660      4.21086        -0.048137      0.090818     -0.070026
Ni	      6.22319      8.23465      6.41496        -0.190203      0.150771      0.041315
O	      4.09652      6.23081      4.04004         0.297105     -0.149775     -0.079265
O	      1.94756      2.08650      1.96336        -0.040239      0.000784     -0.031668
O	      4.10038      4.30127      1.94735        -0.012268     -0.037179     -0.143222
O	      4.17367      1.99354      4.26687        -0.030792      0.336267     -0.013517
O	      6.13541      4.05765      4.27832        -0.059225      0.022365      0.036586
O	      6.26709      2.01991      6.49375        -0.016498      0.000741      0.108446
O	      8.29172      4.01413      6.25866         0.075935     -0.008429      0.124779
O	      2.15126      4.25229      4.35476        -0.034331     -0.263982     -0.109999
O	      4.10477      4.17998      6.44580         0.003778     -0.001379     -0.173904
O	      6.15885      6.24708      6.40623         0.006084     -0.174279     -0.019224
O	      6.21669      3.99100      8.49351        -0.003053     -0.074730     -0.071287
O	      8.37498      6.21811      8.61675         0.015674      0.007293     -0.112806
O	      1.96062      6.37755      6.26473        -0.050190     -0.052042      0.149850
O	      4.02005      8.43753      6.39823        -0.028285      0.208199     -0.006479
O	      4.13083      6.21542      8.63622        -0.059108      0.031374     -0.394560
O	      6.15848      8.33347      8.52595        -0.029721      0.009420      0.115121
O	      6.19339      6.31584     10.73045        -0.093136      0.139391      0.250972
O	      8.15497      8.33190     10.80214        -0.138570      0.047932      0.202248
