# total energy = -214.77799476 eV
 
CRYSTAL
PRIMVEC
0.060175 6.323729 6.282236 
6.210351 0.076834 6.264844 
4.177773 4.242213 0.014096 
PRIMCOORD
36 1
Li	      2.20616      6.38908      8.33766        -0.002087      0.041538     -0.001510
Li	      4.20328      8.34152      8.37351        -0.084836     -0.006611      0.021617
Li	      2.04885      4.18342      2.14113         0.031853      0.012746      0.089690
Li	      2.11414      2.27883      4.24857         0.038470     -0.006463     -0.032261
Li	      4.06780      2.33554      6.27465         0.086047     -0.067856     -0.052493
Li	      4.22340      8.38845      4.23680        -0.022694      0.025442      0.053540
Li	      6.38136      8.38871      6.34837        -0.056823      0.041572     -0.016606
Li	      4.27837      6.39838      6.39805        -0.028344      0.049766     -0.034175
Li	      4.17952      4.34985      8.26965         0.029298     -0.029634      0.096036
Sc	      4.10960      4.12624      0.16028        -0.001881     -0.152278     -0.097809
Ti	      2.22408      6.19973      4.20505         0.145807     -0.256413     -0.150098
Mn	      6.25763      8.50329     10.38279        -0.168982      0.020464      0.057454
Fe	      6.27902      2.30822      8.33926        -0.256742     -0.197506     -0.140934
Co	      8.22965      4.32093      4.13135         0.486428      0.051175     -0.144537
Co	      4.20190      4.25196      4.16264         0.066978      0.024005     -0.057882
Cu	      2.14473      8.40638      6.31343         0.084421      0.079343      0.023511
Cu	      6.21268      4.42168      6.26627         0.154845     -0.030095      0.090118
Cu	      6.25445      6.35067      8.32355         0.069510     -0.044400      0.269612
O	      6.30181      6.39985      6.38896        -0.020434     -0.119652     -0.186384
O	      4.29227      6.33850      8.47365        -0.308028      0.015380      0.457257
O	      1.98748      2.13069      2.00573         0.362433      0.008429      0.093673
O	      4.14437      4.36793      2.15526        -0.003449     -0.060728      0.073322
O	      4.28342      2.27526      4.16396         0.035803     -0.121799     -0.048469
O	      6.15752      4.08280      4.06466        -0.056408     -0.107420      0.035287
O	      6.23023      2.14784      6.20241        -0.121014      0.081074     -0.018483
O	      8.24445      4.23379      6.14155        -0.363837      0.247788     -0.379409
O	      2.22327      4.31194      4.22886         0.046383      0.306158      0.025182
O	      4.16564      6.26212      4.12177        -0.234124      0.019973      0.086612
O	      4.29142      4.30894      6.06897        -0.088913      0.009454     -0.097188
O	      6.24443      4.24063      8.45829        -0.003996      0.241324     -0.133988
O	      8.37392      6.43635      8.50573        -0.014689     -0.016489      0.215559
O	      2.09191      6.33903      6.15907        -0.001286     -0.181720     -0.046017
O	      4.12087      8.45681      6.26152         0.221428      0.092694      0.028233
O	      6.30522      8.40258      8.52557         0.028365      0.025085     -0.061060
O	      6.33442      6.50329     10.45952        -0.050290      0.062447      0.064201
O	      8.21067      8.43764     10.54813         0.000787     -0.056790     -0.081602
