# total energy = -215.14403940 eV
 
CRYSTAL
PRIMVEC
-0.011692 6.297530 6.193268 
6.335400 -0.056668 6.237457 
4.169805 4.174210 0.015984 
PRIMCOORD
36 1
Li	     10.47932      4.14086      6.28519         0.014721     -0.013826     -0.011133
Li	      8.42536      2.08595      6.24612         0.042586      0.024545     -0.027173
Li	      2.09911      6.31051      8.17346        -0.010445      0.013151      0.040999
Li	      8.53110     10.28418     10.37910         0.030714     -0.009542     -0.007630
Li	      6.28133      2.11386      8.17850        -0.064029      0.037228      0.096635
Li	      8.37527      4.15815      8.23737        -0.024277      0.085190      0.064254
Li	      6.17359      4.31814     10.25459         0.020769      0.018088     -0.025556
Li	      4.40253      4.17432      8.32733        -0.014952     -0.105122      0.037214
Li	      6.25609      6.12347      8.34526         0.060831      0.024373      0.043307
Sc	      6.38917      8.28178     10.39821         0.211151     -0.220272     -0.076187
Ti	      6.15657      6.23407      4.09605        -0.213630     -0.039230     -0.269705
Mn	      4.18533      8.35868      8.27753         0.069869      0.032018     -0.127490
Fe	      2.12158      4.24846      6.24955        -0.059082     -0.079655      0.037467
Co	      4.18751      4.13383      4.13570         0.017087      0.039541     -0.106455
Co	      8.34687      6.27642     10.23193         0.066556     -0.253692      1.004478
Ni	      6.33714      4.10807      6.31037        -0.149673     -0.021453     -0.101205
Ni	      4.18232      6.27954      6.28639         0.010437      0.068977     -0.013434
Ni	      8.39742      6.16822      6.39901        -0.030747      0.097107     -0.043031
O	      6.34013      4.14809      8.16483         0.009842     -0.024055      0.236535
O	      2.24665      2.04786      2.20368        -0.053503     -0.015764      0.225387
O	      4.20967      4.00606      2.22271         0.007920     -0.052042      0.060227
O	      4.14639      2.18537      4.07752        -0.012260      0.010289      0.111160
O	      6.15378      4.22679      4.27981        -0.060428      0.118061     -0.092951
O	      6.23664      2.05405      6.23128         0.032454     -0.074712     -0.006113
O	      8.23945      4.19704      6.23607         0.174965     -0.077874     -0.018910
O	      2.20926      4.06910      4.18811         0.085407      0.057831     -0.069938
O	      4.25846      6.12433      4.13877         0.197059     -0.116276     -0.084885
O	      4.20157      4.16084      6.12909        -0.037457     -0.043689     -0.053436
O	      6.32153      6.33135      6.11256        -0.051839      0.072007     -0.136012
O	      8.42839      6.22607      8.43781        -0.086677      0.206073     -0.104547
O	      2.16596      6.19074      6.03234        -0.179190      0.222670     -0.516866
O	      4.24826      8.35962      6.36788        -0.018364      0.068642      0.057738
O	      4.17091      6.44644      8.29915        -0.016626      0.050822      0.088925
O	      6.13645      8.38710      8.25582        -0.056314      0.062374      0.009497
O	      6.35532      6.25676     10.39424        -0.012981     -0.027102     -0.071639
O	      8.39641      8.29559     10.35505         0.100104     -0.134678     -0.149528
