# total energy = -219.19624479 eV
 
CRYSTAL
PRIMVEC
0.014894 6.383528 6.191915 
6.300664 0.014146 6.192962 
4.196578 4.252516 0.013266 
PRIMCOORD
36 1
Li	      0.20175      6.27564      6.14892         0.056434     -0.042192      0.013891
Li	      6.30226     10.46367      8.22578         0.017289     -0.046538      0.012913
Li	      4.29930      8.55641      8.26693        -0.030709     -0.017165      0.036376
Li	      6.26204      2.21893      4.10145        -0.023682      0.010822      0.014757
Li	      6.26076      6.34730      4.17579         0.008666     -0.005482      0.006379
Li	      4.30904      4.15934      4.12850         0.033942     -0.090947     -0.008446
Li	      2.13295      6.42546      4.22452         0.005270     -0.016519     -0.022660
Li	      6.22331      8.59453      6.21343         0.015953     -0.060310     -0.036267
Li	      8.29171      8.59848      8.27366        -0.010867      0.022063     -0.003682
Sc	      6.29724      6.54244      8.29671        -0.050126     -0.057516      0.009052
Ti	      2.23885      4.17659      2.18365         0.251262      0.009392      0.213264
Mn	      6.25925      4.25551      6.18148        -0.103844      0.012996     -0.018110
Fe	      4.18363      6.40917     10.26734        -0.039942      0.141137      0.187908
Co	      4.22794      2.16994      6.15277        -0.040290     -0.192690     -0.205118
Co	     10.47833      8.52300     10.33254         0.010675      0.014764     -0.061309
Co	      4.04765      6.41427      6.12269        -0.010060     -0.034143     -0.005180
Cu	      2.14142      8.46217      6.18614         0.032840     -0.028428      0.008143
Ni	      4.21185      6.37178      2.11638        -0.010856     -0.008174      0.053951
O	      2.09628      2.29087      1.96340         0.121192      0.098374      0.042985
O	      4.09381      4.29534      2.07589        -0.212023     -0.099155     -0.011834
O	      4.21622      2.04883      4.29497         0.045682      0.072459     -0.012484
O	      6.36486      4.24386      4.30156        -0.099233     -0.001869      0.050216
O	      6.40800      2.33089      6.24100        -0.013975      0.036381     -0.102324
O	      8.23424      4.47562      6.22939        -0.047495      0.028384      0.054332
O	      1.96676      4.26753      4.01631         0.032928     -0.016454     -0.213662
O	      4.18042      6.58635      4.13046        -0.028266      0.019888      0.132625
O	      4.37157      4.12508      6.16369         0.041070      0.121319      0.034735
O	      6.11095      6.19105      6.21116        -0.062429     -0.001824      0.008206
O	      6.38641      4.26850      8.23506        -0.005853      0.091995     -0.051201
O	      8.42408      6.29487      8.10131        -0.056752      0.002068      0.115229
O	      2.25080      6.26060      6.20643         0.031426      0.100576     -0.013877
O	      4.16729      8.42780      6.03717         0.051007      0.024120      0.050156
O	      4.20342      6.41692      8.32125         0.015231     -0.017150     -0.190321
O	      6.31468      8.47427      8.27892         0.012000      0.001375     -0.043465
O	      6.23459      6.24518     10.35692         0.093516      0.026731     -0.002469
O	      8.54806      8.61280     10.42080        -0.029979     -0.098289     -0.042706
