# total energy = -219.25862389 eV
 
CRYSTAL
PRIMVEC
0.078323 6.233330 6.255739 
6.319568 0.035795 6.298199 
4.217818 4.188110 0.019408 
PRIMCOORD
36 1
Li	      6.41189      6.24713     12.51636        -0.000638      0.000092     -0.007929
Li	      2.14011      2.08053      0.06096        -0.026055      0.005817      0.005979
Li	      8.60389     10.34958     10.57809         0.041545      0.024850      0.004329
Li	      8.50524      6.26034      6.40130         0.049330      0.040944     -0.040411
Li	      6.35079      4.16589      6.38458        -0.003980     -0.011905     -0.007578
Li	      6.27693      4.31959     10.46135        -0.052512      0.005618     -0.011712
Li	      8.47250      6.26671     10.43958         0.016650      0.011534      0.001452
Li	      6.32773      8.39314      6.39406         0.008752     -0.009187      0.068543
Li	      6.41357      6.23640      8.33946        -0.060148      0.060048     -0.004168
Sc	      6.36165      6.27157      4.25588         0.041858      0.048824      0.072709
Ti	      6.51983      8.19905     10.52221         0.135605     -0.411443      0.423517
Mn	      4.23356      6.28664      6.33806         0.006324      0.016463     -0.020828
Fe	      4.22241      4.19098      4.23391        -0.041291      0.074292      0.101861
Co	      2.19808      6.24131      8.32704         0.062832     -0.057313     -0.100778
Co	      8.28626      4.31477      8.25762         0.015911      0.035204     -0.046307
Co	      4.28446      4.17673      8.34566        -0.217322      0.116552      0.113854
Cu	      4.31100      8.35982      8.30839        -0.028990     -0.026118      0.078427
Cu	      6.28931      2.12318      8.27982         0.243991     -0.147588      0.109445
O	      4.27890      8.20414      6.38775        -0.032503     -0.014562     -0.115912
O	      1.94563      1.98872      2.11824        -0.214269     -0.059746     -0.091632
O	      4.36925      4.20189      2.15165         0.073585      0.273991     -0.157253
O	      4.28011      2.16442      4.07140        -0.005552     -0.025392      0.105364
O	      6.27117      4.16626      4.07205         0.016955     -0.012409     -0.081019
O	      6.34210      2.15301      6.07675         0.030097     -0.041291     -0.548728
O	      8.45620      4.21092      6.49405        -0.011530      0.052023      0.079722
O	      2.23742      4.14758      3.95294        -0.009638     -0.015920     -0.046678
O	      4.24623      6.19615      4.42895         0.041462      0.104423      0.019230
O	      4.24373      4.29566      6.30951         0.025448     -0.024162      0.078375
O	      6.20723      6.27856      6.28657        -0.024639     -0.001431     -0.013190
O	      6.29280      4.11332      8.41475        -0.073506      0.015596     -0.044513
O	      8.56261      6.36531      8.35915        -0.046988      0.106342     -0.011946
O	      2.31058      6.25110      6.41192         0.000466      0.005296      0.119042
O	      4.15536      6.21081      8.28213        -0.074543     -0.460668      0.133954
O	      6.55875      8.50332      8.42202         0.222342     -0.040133     -0.013232
O	      6.37741      6.36200     10.42529         0.069240      0.390634      0.001371
O	      8.42495      8.37792     10.30895        -0.178287     -0.029278     -0.153359
