# total energy = -220.28890777 eV
 
CRYSTAL
PRIMVEC
0.017931 6.338910 6.272218 
6.302475 -0.001754 6.291681 
4.178482 4.216002 0.021564 
PRIMCOORD
36 1
Li	      6.37705     10.37548      8.48706         0.031562     -0.036417      0.035430
Li	      4.32842      8.42677      8.44764         0.076061     -0.049203      0.105283
Li	      6.22263      2.22534      4.07352        -0.031653     -0.046743     -0.009564
Li	      2.13217      2.12927      4.21167         0.092921      0.031901     -0.027803
Li	      4.23158      4.09192      4.20745        -0.077650     -0.010689     -0.057069
Li	      4.16258      2.20284      6.19623        -0.043611     -0.011206     -0.083719
Li	      2.12310      6.25265      4.20285        -0.009555     -0.073674     -0.010514
Li	      2.20081      4.24042      6.32219         0.008013     -0.013305     -0.029506
Li	      4.10307      4.32265      8.33599         0.004940     -0.016374      0.042263
Sc	      6.32301      6.45543      8.38261         0.077424      0.122633      0.230949
Ti	      2.18722      8.34080      6.27290         0.181903     -0.100595     -0.097263
Mn	     10.45664      6.34094      8.42309        -0.138934      0.003161      0.038660
Fe	      6.18852      4.25030      6.16770        -0.006032      0.227053     -0.029062
Co	      4.16874      4.22831      0.04870        -0.043512     -0.049052     -0.179841
Co	      4.14861      0.16946      4.16581         0.035194     -1.154918      0.070701
Co	      4.21665      8.43496      4.23075         0.085172     -0.039981      0.046569
Co	      4.18481      6.27812      6.30133         0.103834     -0.018743      0.126586
Cu	      2.10475      4.22214      2.12059         0.000703      0.061941      0.061229
O	      1.93053      2.19590      2.01916        -0.128719     -0.253867     -0.151798
O	      4.09791      4.39902      2.02268         0.324064      0.134659      0.146093
O	      4.22513      1.96729      4.20376        -0.119479      0.195618     -0.041507
O	      6.34948      4.17229      4.25238         0.208960      0.231445      0.024164
O	      6.38574      2.14871      6.41285         0.102969     -0.036582     -0.007311
O	      8.38643      4.12700      6.31293         0.077183     -0.066933     -0.051066
O	      1.90561      4.21825      4.10007        -0.123750      0.044314      0.177730
O	      4.14764      6.47788      4.07973        -0.016832      0.102785     -0.052114
O	      4.25263      4.26633      6.19747        -0.008995      0.056119      0.005712
O	      6.29052      6.24053      6.32782        -0.238902     -0.117108      0.015624
O	      6.36280      4.09931      8.27209        -0.288896     -0.068694      0.081270
O	      8.50695      6.25657      8.38974         0.125747      0.242124     -0.003678
O	      2.06518      6.45130      6.28480         0.035232      0.279788      0.005310
O	      4.09566      8.42108      6.40641        -0.305417      0.023862     -0.075709
O	      4.26433      6.30492      8.44109         0.076473      0.150128     -0.360270
O	      6.33762      8.38813      8.39802         0.048946     -0.129898     -0.074837
O	      6.28755      6.18091     10.60636        -0.083520      0.069833     -0.098826
O	      8.53370      8.54913     10.61875        -0.031844      0.316617      0.227883
