# total energy = -220.73742441 eV
 
CRYSTAL
PRIMVEC
-0.004829 6.234238 6.271986 
6.242929 0.015223 6.251406 
4.159402 4.140032 0.012989 
PRIMCOORD
36 1
Li	      8.27284      2.13602      6.24798        -0.008577      0.027853      0.003885
Li	      6.21922      2.21591      8.28748        -0.033621      0.008019     -0.033008
Li	      4.18407      4.12104      4.28312         0.054448     -0.055275      0.061532
Li	      8.28501      6.25840      6.30193        -0.077168      0.073388      0.014699
Li	      6.25937      4.11437      6.28304         0.028110      0.062823     -0.000437
Li	      6.22839      4.17610     10.36340        -0.016512      0.021172     -0.060247
Li	      6.25965      8.21960      6.30751         0.003515     -0.113575      0.074083
Li	      4.20868      6.25461      6.28993         0.077445     -0.069906      0.060145
Li	      6.26063      6.19703      8.25606         0.004502      0.017742     -0.087683
Sc	     10.34004      4.20943      6.26099        -0.136429     -0.040340      0.087162
Ti	      2.24695      6.09971      4.21277         0.219724     -0.190395      0.036705
Mn	      4.18472      8.27663      8.36314        -0.037127     -0.013343     -0.224670
Fe	      6.16907      6.21819      4.33248        -0.016744      0.015147      0.096090
Co	      8.31376     10.36375     10.44236         0.015195     -0.027318     -0.063720
Co	      6.23749      2.09424      4.18471        -0.055184      0.013380     -0.037981
Co	      8.17892      4.19608      8.28813        -0.012019      0.143870      0.057129
Co	      4.29241      4.14899      8.18213        -0.167299      0.063104      0.801323
Ni	      2.08509      6.24741      8.31107        -0.003799      0.017724     -0.124603
O	      2.22246      2.07249      2.22907        -0.046468      0.206354      0.028027
O	      4.15642      3.99958      2.12384        -0.161569      0.022043      0.019264
O	      4.23124      1.95381      4.08765         0.025506     -0.105907     -0.070644
O	      6.37398      4.08926      4.12237         0.069613     -0.062871      0.045115
O	      6.23332      2.09403      6.13603         0.025286     -0.015511     -0.164386
O	      8.31648      4.13502      6.12945         0.020350     -0.057816     -0.215819
O	      2.06301      4.21657      4.18625         0.046220      0.240714      0.076087
O	      4.11805      6.20283      4.19159        -0.305201      0.002026     -0.017745
O	      4.09921      4.17905      6.41849         0.263815     -0.037569      0.169351
O	      6.25126      6.23220      6.14559        -0.017471     -0.039201      0.010440
O	      6.22327      4.18115      8.38763        -0.026097     -0.012452     -0.246173
O	      8.33483      6.25935      8.50689        -0.043408     -0.196277     -0.096606
O	      2.05980      6.27569      6.12556         0.006050      0.009674     -0.241174
O	      4.16545      8.29748      6.49030         0.010622      0.052239      0.184060
O	      4.14626      6.30741      8.46826         0.033437      0.110605      0.119698
O	      6.13174      8.34417      8.49237         0.069507     -0.079803      0.082743
O	      6.19167      6.35089     10.42507        -0.030345      0.042580      0.011997
O	      8.17582      8.37287     10.29950         0.221692     -0.032896     -0.354636
