# total energy = -217.97250183 eV
 
CRYSTAL
PRIMVEC
0.027846 6.168942 6.442325 
6.298689 0.044416 6.428001 
4.204910 4.107874 0.022697 
PRIMCOORD
36 1
Li	      4.29265     10.23410      6.50447        -0.024859     -0.052810      0.058146
Li	      4.24413      8.28696      8.55617         0.061238     -0.006112     -0.019320
Li	      2.16140      4.10656      2.27387         0.008250     -0.085123      0.001809
Li	      6.27328      6.20281      4.38770        -0.006711      0.014311     -0.009004
Li	      4.24275      4.11641      4.32434        -0.044854     -0.008629     -0.029860
Li	      6.24269      4.14680      6.29798        -0.025566      0.044861      0.005867
Li	      2.06498      4.11274      6.35254        -0.005186     -0.004536      0.020401
Li	      4.24038      6.22871      6.36974         0.058869     -0.049985      0.009823
Li	      6.27296      6.17360      8.60347         0.013344      0.067464     -0.048573
Sc	      4.23937      6.10267      2.19518        -0.164757      0.247227      0.055661
Ti	      8.17952      6.11705      6.42606        -0.688448      0.071894      0.077560
Mn	      2.20098      8.21868      6.49980         0.022472      0.342010      0.078795
Fe	      6.28136      2.08031      4.30425         0.010365      0.030892     -0.111243
Fe	      4.21783      4.21512      8.38622        -0.142817     -0.098666      0.040489
Co	      2.11323      0.02224      2.16388        -0.037565     -0.008358      0.043721
Cu	      0.05423      4.13928      4.32003        -0.063298     -0.091356      0.043828
Cu	      2.13617      6.08364      4.36718        -0.036958      0.007117     -0.022015
Ni	      4.22515      6.20646     10.69608         0.179284     -0.032934      0.066052
O	      2.00927      4.17902      4.29994         0.193975     -0.062844     -0.018905
O	      2.14236      2.02892      1.99142        -0.098831      0.877826     -0.209131
O	      4.36264      4.10321      2.20662        -0.191592      0.124031     -0.009009
O	      4.30801      2.05992      4.46009        -0.078522      0.114556      0.090767
O	      6.36942      4.07363      4.15081        -0.153392      0.123443      0.217127
O	      6.45223      2.12952      6.39607         0.017577     -0.041591      0.123909
O	      8.40684      4.13069      6.39843         0.011193     -0.035230      0.021927
O	      4.14229      6.22199      4.28386         0.076351     -0.181736     -0.003772
O	      4.19746      3.99531      6.46522         0.014584     -0.110565     -0.123647
O	      6.36852      6.14642      6.41904         0.671209     -0.005047     -0.028094
O	      6.13984      4.16809      8.74185         0.127151     -0.062253     -0.102059
O	      8.44932      6.20814      8.36903         0.014769     -0.003021     -0.229411
O	      2.16053      6.33225      6.66389        -0.024905     -0.095264     -0.132860
O	      4.08342      8.25530      6.35125        -0.082687     -0.036561      0.102566
O	      4.11162      6.15708      8.64138         0.347591      0.114588     -0.064305
O	      6.42248      8.34603      8.71915         0.149277     -1.145045      0.030763
O	      6.37360      6.24991     10.71622         0.028768      0.032631      0.024515
O	      8.41245      8.18435     10.91813        -0.135320      0.004814      0.047481
