# total energy = -217.25829919 eV
 
CRYSTAL
PRIMVEC
-0.007807 6.240521 6.259753 
6.334587 0.009864 6.242343 
4.219936 4.145441 0.009692 
PRIMCOORD
36 1
Li	      6.31775      2.12579      4.15588         0.039284      0.002725      0.054775
Li	      4.22143      6.24550      2.16216        -0.017123      0.004754      0.007409
Li	      6.18652      6.26520      4.27879        -0.077246      0.033492      0.044463
Li	      4.20523      4.17472      4.17069        -0.090671     -0.015356     -0.032436
Li	      8.31546      6.31992      6.26791        -0.115582      0.015942      0.014342
Li	      4.26110      8.22017      4.17411         0.026949     -0.015472     -0.036907
Li	      6.38909      8.11556      6.31309         0.076940     -0.149668     -0.068432
Li	      4.33542      6.24937      6.19111         0.060024      0.007417     -0.006196
Li	      6.36724      6.21968      8.21863         0.060043     -0.097270     -0.064345
Sc	      2.24077      6.23939      4.18371        -0.119041     -0.150087      0.074244
Ti	      4.26086      6.34225     10.29732         0.190865      0.191259     -0.081544
Mn	      8.36399      4.14887      8.37225        -0.070908     -0.135520      0.178081
Fe	      6.33153      0.07805      6.26902         0.062378      0.128115     -0.033335
Fe	      6.20902      4.24685      6.22954         0.206662     -0.257852     -0.036007
Co	      8.44064      2.10354      6.25231        -0.080018     -0.170160      0.166506
Cu	      6.31779      4.15411      2.13270         0.019906      0.178302      0.039113
Cu	      4.27161      8.33484      8.33726         0.001544      0.071058      0.071978
Cu	      8.38139      8.28539      8.29275         0.090070     -0.016707      0.182568
O	      4.28476      4.11495      6.36289        -0.339755      0.018477      0.045618
O	      6.37207      8.44935      8.31452        -0.108530     -0.206291     -0.033464
O	      2.12115      2.08691      1.93509         0.140616     -0.020607     -0.108205
O	      4.00104      4.10125      2.04158         0.122190     -0.032672      0.144343
O	      4.26316      1.97565      4.10348         0.079759     -0.169576      0.066430
O	      6.48333      4.14900      4.18621         0.051913      0.012452     -0.065828
O	      6.49968      2.08892      6.24240         0.096922      0.055436     -0.039564
O	      8.43016      4.05047      6.29570         0.023876      0.013310     -0.155682
O	      2.06815      4.14436      4.00040        -0.017706     -0.001005      0.004866
O	      4.15790      6.21282      4.20034         0.061509     -0.057402      0.011338
O	      6.33889      6.11350      6.24020         0.024975      0.406507     -0.023631
O	      6.43856      4.12439      8.23803        -0.223261     -0.028866      0.194150
O	      8.41067      6.04801      8.35521         0.006194      0.255724     -0.072294
O	      2.00747      6.38043      6.34609         0.025213      0.112657     -0.101578
O	      4.07038      8.40557      6.36627        -0.040521     -0.127975     -0.089658
O	      4.34673      6.30843      8.43040         0.056816     -0.000157      0.053142
O	      6.22787      6.23943     10.56805        -0.220110      0.029535     -0.164256
O	      8.45970      8.38531     10.45058        -0.004176      0.115483     -0.140003
