# total energy = -217.58436349 eV
 
CRYSTAL
PRIMVEC
0.008752 6.215037 6.299839 
6.183648 -0.003375 6.311447 
4.113901 4.142770 0.006154 
PRIMCOORD
36 1
Li	      6.21804     10.31383      8.47237        -0.013501      0.009826      0.041263
Li	      8.13811      4.10008      4.22077         0.021334      0.022444     -0.059508
Li	      6.20025      2.20296      4.18009        -0.002531      0.004813     -0.177195
Li	      8.24424      4.13824      8.39183        -0.020299      0.010269      0.008425
Li	      4.17438      4.11008      4.34831        -0.007098     -0.021278     -0.035101
Li	      4.17513      2.17292      6.26367        -0.048845      0.028425      0.004918
Li	      2.16146      4.19624      6.30759         0.034400     -0.017687      0.018074
Li	      4.06329      6.07620      6.40052        -0.027249      0.023595      0.125434
Li	      4.10295      4.16658      8.32691         0.029954     -0.050429      0.008875
Sc	      6.15908      6.22309      4.28114         0.247789     -0.012341      0.049636
Ti	      4.20241      8.26038      8.42860         0.245156     -0.113492      0.255353
Mn	      2.06661      6.19367      4.20394        -0.146176      0.020805     -0.046678
Fe	     10.18627      4.16046      6.31494         0.120943      0.007251     -0.095703
Fe	      6.21522      6.17761      8.30632         0.068783      0.040450      0.167716
Co	     10.27425      6.19213      8.40783         0.018818     -0.024014      0.046849
Ni	      8.20689      2.05009      6.31276         0.018788     -0.022695      0.080187
Ni	     10.27228      8.28579     10.52918        -0.010503      0.057208     -0.075488
Ni	      6.18184      4.12613      6.29616         0.072414      0.083846     -0.006065
O	      4.28376      4.14110      6.31616        -0.100805      0.057112     -0.002285
O	      2.00609      2.04131      2.13756         0.796246      0.007487      0.083824
O	      4.13682      4.19138      1.98544        -0.017246     -0.887065      0.114103
O	      4.08519      2.12839      4.01756        -0.032472      0.036296     -0.155588
O	      6.18323      4.18915      4.32386        -0.025291     -0.076216     -0.032411
O	      6.17032      2.02647      6.49690        -0.110121      0.000735     -0.126955
O	      8.22946      4.11169      6.26209        -0.088156      0.075198      0.012919
O	      2.01491      4.22962      4.24204         0.111392      0.125498     -0.055813
O	      4.02137      6.23536      4.05125        -0.114564     -0.138691      0.138430
O	      6.24897      6.21939      6.37799        -0.040747      0.045419     -0.255351
O	      6.18764      4.06033      8.34888         0.073676      0.707890      0.034764
O	      8.29483      6.19356      8.57351        -0.860077     -0.078192      0.055374
O	      1.98603      6.21852      6.12749         0.071409     -0.093084     -0.092543
O	      4.06959      8.36959      6.39175         0.075818     -0.063367     -0.024955
O	      4.21115      6.33160      8.40536        -0.132180      0.158072     -0.000177
O	      6.09840      8.22784      8.38511        -0.202191      0.114913      0.013101
O	      6.30950      6.18857     10.46206         0.117789      0.094427      0.093223
O	      8.26285      8.12177     10.54825        -0.124659     -0.133427     -0.110652
