# total energy = -219.03551044 eV
 
CRYSTAL
PRIMVEC
-0.058533 6.310848 6.119379 
6.382257 -0.046016 6.106584 
4.229393 4.173382 -0.005373 
PRIMCOORD
36 1
Li	      2.14168      0.06425      1.98347        -0.036539      0.028153      0.039392
Li	      4.14181      2.07325      1.99005        -0.056284      0.010241     -0.000951
Li	      4.23176      6.32692      2.11880         0.009720     -0.002819      0.028595
Li	      1.97276      2.18727      4.02297         0.006329     -0.039600     -0.020591
Li	      4.26387      8.23388      4.07445        -0.032874     -0.048017      0.064396
Li	      2.21056      6.22153      4.02241         0.045894      0.024291      0.046604
Li	      4.36014      6.25406      6.10050         0.063805      0.022849      0.040986
Li	      4.32721      4.21056      8.17565         0.091024     -0.003780     -0.003016
Li	      6.32255      6.15724      8.13005        -0.016452     -0.023836     -0.004028
Sc	      8.43883      6.29773      6.26441         0.038909      0.088188      0.032625
Ti	      6.34142      8.31451      9.97204        -0.023044      0.102761     -0.441397
Mn	      4.19767      6.28624     10.09209        -0.205198      0.043463     -0.055176
Fe	      2.08473      8.28009      6.22291         0.145159      0.015421     -0.092243
Fe	      4.13697      4.39231      3.97556         0.326457     -0.225932     -0.090468
Co	      4.19788      4.15695      0.03305         0.178792     -0.256724      0.270394
Co	      6.34251      4.24189      6.18082        -0.240838     -0.067312     -0.343204
Cu	      6.24424      8.37277      6.14877        -0.016025      0.119159      0.131653
Ni	      2.02311      4.17711      2.11039         0.274082     -0.086574      0.198759
O	      2.09814      2.11960      1.97107        -0.134242      0.085385      0.260953
O	      4.16605      4.16674      2.01658        -0.094186     -0.028910     -0.193745
O	      4.40152      1.96344      4.05191         0.061430     -0.082504      0.070774
O	      6.44776      4.04453      4.16073        -0.015063      0.007186      0.268230
O	      6.40867      1.93803      6.00877        -0.119737      0.423629      0.000830
O	      8.53773      4.11656      6.01149        -0.483780      0.092624      0.144958
O	      2.22658      4.16368      4.20424        -0.395314     -0.004451     -0.133741
O	      4.22738      6.22376      4.10305         0.006104      0.391186      0.056623
O	      4.37629      4.16501      6.03425         0.901435      0.137345      0.059680
O	      6.39126      6.28287      6.10695         0.007157     -0.784017     -0.083838
O	      6.37942      4.13607      8.00830        -0.035088      0.147294     -0.238806
O	      8.44395      6.20569      8.20140        -0.069762     -0.096046     -0.060658
O	      1.82375      6.30898      6.10484        -0.070771     -0.115069     -0.066832
O	      4.05542      8.53611      6.09008        -0.111295      0.167191     -0.150280
O	      4.18099      6.27345      8.30094         0.043461     -0.035320      0.022347
O	      6.33196      8.36445      8.15706        -0.004541     -0.032652      0.402271
O	      6.15082      6.35418     10.27426        -0.049320     -0.025456     -0.078848
O	      8.29661      8.50090     10.22384         0.010594      0.052652     -0.082247
