# total energy = -219.79796325 eV
 
CRYSTAL
PRIMVEC
0.012239 6.177291 6.390421 
6.180233 0.036909 6.366263 
4.138762 4.120501 0.005720 
PRIMCOORD
36 1
Li	      8.17804      2.17352      6.42492         0.000101      0.009079     -0.001462
Li	      6.25342      4.11055      2.20836        -0.006520     -0.008254      0.035464
Li	      4.18965      8.17075      8.57084         0.007872      0.015670     -0.034561
Li	      4.10809      6.21290     10.45089        -0.030033      0.002185     -0.071635
Li	      8.22043      4.16902      8.46120         0.002833      0.072474     -0.014774
Li	      4.15291      4.10697      4.21969         0.003221      0.016607      0.033522
Li	      6.32134      4.08124      6.41744         0.019739     -0.020447     -0.039195
Li	      8.21905      8.26134      8.52557        -0.022342     -0.100201     -0.014161
Li	      6.16965      6.24810      8.53699         0.091659      0.005565     -0.006334
Sc	      4.13532      6.12159      6.56280        -0.026325     -0.017203      0.066166
Ti	      4.04196      4.13709      0.14015        -0.185450      0.077038      0.188409
Mn	      6.17925      8.31207     10.49860        -0.003024      0.057262      0.006170
Fe	      2.19689      1.96266      4.12967         0.047362      0.015068      0.309737
Fe	      6.11745      4.17574     10.47097        -0.019085      0.105386      0.292611
Co	      2.10134      6.15972      4.25314        -0.086500     -0.001451      0.046395
Co	      6.18527      8.25513      6.40230         0.076853      0.017791      0.128933
Cu	      6.18835      2.12902      8.50497         0.040610     -0.056350     -0.047455
Cu	      8.24730      6.23614      6.44350         0.065180     -0.092508      0.015871
O	      8.38090      6.17344      8.73663        -0.088644     -0.041570      0.103586
O	      1.99901      2.09140      2.26261        -0.101390      0.087202     -0.220747
O	      4.18284      4.21446      1.95170        -0.065017     -0.021394     -0.257249
O	      4.17188      2.10011      4.14395         0.158109     -0.025856     -0.100822
O	      6.19497      4.10332      4.26785         0.025466     -0.089029     -0.047612
O	      6.15759      2.03733      6.10991         0.033535     -0.068235      0.056016
O	      8.34994      4.21188      6.38262         0.281679     -0.012672     -0.006208
O	      2.00547      4.16572      4.45821         0.004660     -0.070782     -0.036416
O	      4.10505      6.26154      4.38228        -0.077434     -0.085999      0.077949
O	      3.96571      4.06196      6.40449        -0.095148      0.047045      0.031638
O	      6.23419      6.29236      6.27997        -0.091155      0.074054     -0.122798
O	      6.20643      4.10828      8.59883         0.001088     -0.002033     -0.265254
O	      2.00928      6.08669      6.24577        -0.021680      0.009319      0.200428
O	      4.19808      8.33648      6.31598        -0.018426      0.119760     -0.000243
O	      4.13808      6.19812      8.47077         0.033349     -0.047285     -0.060237
O	      6.18941      8.25774      8.54942         0.028636     -0.018087     -0.263355
O	      6.30488      6.24911     10.65346         0.008208     -0.038837      0.017222
O	      8.21241      8.14825     10.65593         0.008012      0.086688      0.000400
