# total energy = -220.62524298 eV
 
CRYSTAL
PRIMVEC
0.052878 6.182246 6.391081 
6.192131 0.034906 6.409518 
4.114051 4.119019 0.038465 
PRIMCOORD
36 1
Li	      2.05227      2.09146      0.08247         0.019767     -0.023456      0.041507
Li	      6.23955     10.20276      8.64526        -0.024370      0.023763     -0.008988
Li	      4.26254      8.25738      8.57285         0.025790      0.019597     -0.010424
Li	      4.24306      6.19164     10.43504         0.041349      0.004607     -0.010359
Li	      0.05316      2.04512      2.13663         0.011129     -0.026039      0.022235
Li	      4.14533      2.09969      6.36306        -0.024800      0.019945     -0.022410
Li	     10.30566      8.32137     10.75697         0.024146      0.069948     -0.013358
Li	      6.20478      8.24260      6.62885         0.014085      0.009724      0.060119
Li	      6.16229      6.25876      8.58110         0.008253     -0.018325      0.028846
Sc	      4.13284      6.33685      6.54030         0.054175     -0.106657      0.039358
Ti	      8.26585      6.29467     10.67029        -0.218640      0.052606     -0.143340
Mn	      8.27327      4.14178      8.53298        -0.007175      0.060926      0.370453
Fe	      2.23139      2.03245      4.22342        -0.137862      0.018196      0.013495
Fe	      6.21138      4.05443      6.42149        -0.086134      0.068566     -0.014458
Co	      4.09594      4.11113      0.05090         0.086889     -0.426133      0.468205
Co	      6.21960      8.23938     10.65357        -0.112328     -0.100459     -0.121673
Ni	      4.14369      4.12200      4.27956        -0.006369      0.079134     -0.131755
Ni	      4.13457      4.14935      8.50155         0.077414     -0.059728     -0.052513
O	      2.05597      2.19000      2.28587         0.022406      0.024296     -0.202808
O	      4.00479      4.16564      2.05056        -0.145017      0.089032      0.787682
O	      4.19095      2.11335      4.27341         0.128437     -0.222434      0.024241
O	      6.19846      4.09130      4.35588         0.148893      0.008223     -0.000619
O	      6.21065      2.04290      6.23967         0.029747      0.614244     -0.048543
O	      8.32662      4.14771      6.63308        -0.128366      0.005230     -0.147685
O	      2.07149      4.14018      4.10289        -0.077121      0.008128     -0.148258
O	      4.03653      6.18109      4.33217        -0.111746      0.154204      0.032717
O	      4.21084      4.15021      6.40983         0.010530     -0.015055     -0.004430
O	      6.20109      6.13394      6.24048         0.007347     -0.009805      0.071789
O	      6.30038      4.12778      8.40403         0.131744     -0.001115     -0.003133
O	      8.23469      6.11876      8.71179         0.025533     -0.145827      0.033990
O	      2.00381      6.15188      6.24668         0.071314      0.040617      0.047758
O	      4.15261      8.35541      6.41973        -0.019318     -0.341084     -0.094435
O	      4.16650      6.16157      8.50030        -0.008348      0.175779     -0.051415
O	      6.26128      8.23312      8.73617        -0.142380      0.003739      0.132847
O	      6.25153      6.29048     10.83943         0.288011      0.073973     -1.099142
O	      8.20354      8.18565     10.61672         0.023018     -0.128358      0.154503
