# total energy = -222.45766848 eV
 
CRYSTAL
PRIMVEC
0.048225 6.013821 6.473653 
6.329371 0.001990 6.519220 
4.218176 4.039301 0.002737 
PRIMCOORD
36 1
Li	     10.48030      4.10947      6.55859        -0.031917     -0.015858      0.041347
Li	      2.22919      6.02013      8.69239         0.025773      0.055075     -0.033015
Li	      8.35982      4.06044      4.35259         0.006689      0.013735      0.014775
Li	      6.29127      2.03323      8.52679        -0.054349     -0.024500      0.024363
Li	      6.37559      5.97896      4.36571         0.008072      0.070367     -0.020639
Li	      8.42965      5.95882      6.64627        -0.047186     -0.040358      0.121350
Li	      6.46088      4.01116      6.43473         0.058626      0.045244      0.013479
Li	      8.42499      6.08940     10.79713         0.054687     -0.103807     -0.037055
Li	      6.35383      6.03761      8.70032         0.066140     -0.063756      0.008487
Sc	      4.28612      4.03693      4.20834        -0.440079      0.193109     -0.217663
Ti	      6.38403      8.03716      6.55589         0.168845     -0.065562     -0.139432
Mn	      8.38079      2.05598      6.55039         0.177614      0.267656      0.262013
Fe	      6.36023      4.10755     10.75492         0.184004     -0.380342     -0.123352
Fe	      4.29934      6.00241      6.52379        -0.136795     -0.022162     -0.068653
Co	      4.24437      8.00979      8.61371        -0.079748      0.093813     -0.128862
Co	      6.35277      7.96782     10.86621         0.006138     -0.047093      0.021260
Co	      8.40227      4.14494      8.63614         0.343548     -0.991409      0.131611
Cu	      4.33180      3.98134      8.70974         0.074091     -0.405138      0.067117
O	      2.24508      2.09622      2.01242        -0.013564     -0.103278     -0.080895
O	      4.11841      3.94536      2.16960         0.014298     -0.012976      0.159243
O	      4.24511      1.95456      4.04940         0.336507      0.023063      0.108079
O	      6.28597      3.93833      4.32463         0.148086     -0.456333     -0.001647
O	      6.53552      2.00640      6.52222        -0.056137      0.031192     -0.300142
O	      8.42810      3.94589      6.62063        -0.080417     -0.190289     -0.493115
O	      2.06659      4.04814      4.46032        -0.037747     -0.027235      0.472754
O	      4.28209      6.11193      4.47269         0.018938     -0.026226      0.049249
O	      4.08433      3.98559      6.39790        -0.083876     -0.007228     -0.032741
O	      6.29710      6.14155      6.48197         0.016676      0.164462     -0.087147
O	      6.39989      4.00025      8.80251        -0.206762      0.057125      0.076218
O	      8.48618      5.98685      8.66109         0.045294      1.101276     -0.030358
O	      2.22616      6.04824      6.52367         0.001009     -0.121998      0.002192
O	      4.24283      8.04628      6.58621         0.001967      0.029271     -0.043598
O	      4.26499      6.01186      8.48856        -0.041265      0.135734      0.137288
O	      6.24051      8.04332      8.48615        -0.074789      0.089459      0.155606
O	      6.37177      6.00377     10.83616        -0.099948      0.683198      0.080434
O	      8.55321      8.05995     11.09019        -0.272424      0.051769     -0.108551
