# total energy = -221.54233198 eV
 
CRYSTAL
PRIMVEC
-0.019069 6.301274 6.236967 
6.356092 -0.015618 6.233812 
4.229119 4.190175 -0.001956 
PRIMCOORD
36 1
Li	      4.23118      4.26979      0.08527         0.036332      0.134781     -0.079672
Li	      8.32142      2.12304      6.36893        -0.223990      0.026081     -0.129583
Li	      2.10616      0.10137      2.11627        -0.015316     -0.023686      0.069405
Li	      8.33074      4.24792      4.20734        -0.094588     -0.075873      0.047693
Li	      0.07562      1.99436      2.03844        -0.061975      0.075453     -0.134086
Li	      6.35222      6.12359      4.08763        -0.049975     -0.170752      0.080605
Li	      4.32965      4.25089      4.06751         0.158976      0.047722      0.051356
Li	      6.40537      4.12181      6.16942        -0.005928     -0.100030     -0.079198
Li	      4.18932      6.22313      6.20221         0.001218     -0.071579     -0.027486
Sc	      4.19442      8.33591      4.24792        -0.013954      0.129811     -0.157937
Ti	      6.20688      6.23625      8.26600         0.032705     -0.015269      0.012444
Mn	      2.15874      4.22832      6.25834         0.186048      0.061385     -0.134331
Fe	      6.29749      2.23745      4.24751         0.392566     -0.031343     -0.059135
Fe	      2.18089      6.28127      4.16611        -0.250595     -0.024927     -0.004947
Co	      4.14997      2.17227      2.09320        -0.432550      0.309313      0.307581
Co	      2.23736      4.08222      2.01568        -0.348048      0.330397     -0.050426
Co	      8.43969      8.38560      8.30982        -0.087904     -0.148267     -0.053111
Ni	      4.27526      2.06841      6.21449         0.121678      0.043634      0.092778
O	      2.10769      2.14118      2.07015         1.520282     -0.140081      0.015498
O	      4.13803      4.16315      2.06388         0.298711     -1.322592      0.107629
O	      4.34216      2.02852      4.11264        -0.589885      0.199742     -1.343338
O	      6.35968      4.10171      4.15205        -0.013099      0.674471     -0.097540
O	      6.32506      2.08604      6.11461        -0.006796     -0.241244      0.848080
O	      8.44272      4.22472      6.43704         0.054923     -0.159213     -0.026887
O	      2.06575      4.25147      3.97543         0.007288     -0.097893     -0.047047
O	      4.12523      6.33565      4.12583         0.181102     -0.034957     -0.088730
O	      4.10721      4.16364      6.38906        -0.005222      0.107607      0.135553
O	      6.39708      6.43029      6.34678        -0.075050     -0.021398      0.116134
O	      6.20840      4.30799      8.30041        -0.052622      0.114264      0.069895
O	      8.36113      6.41841      8.32548        -0.009744      0.122586      0.057949
O	      2.11357      6.14836      6.12790         0.041260      0.003367      0.127903
O	      4.40320      8.36382      6.27844        -0.338718      0.127886      0.914921
O	      4.32513      6.20097      8.30667         0.109666      0.622760     -0.024357
O	      6.48033      8.31473      8.41391        -0.589229     -0.226557     -0.168230
O	      6.42168      6.28931     10.25299         0.000020     -0.222732     -0.177853
O	      8.44370      8.33387     10.30396         0.122415     -0.002869     -0.171532
