# total energy = -224.71253481 eV
 
CRYSTAL
PRIMVEC
0.002726 6.374610 6.190019 
6.202932 0.044495 6.147043 
4.173139 4.259388 -0.007833 
PRIMCOORD
36 1
Li	      6.14502      0.10565      6.07335        -0.036112     -0.005039      0.004203
Li	      8.32739      4.33603      4.25126         0.075616      0.004245     -0.043398
Li	      4.18903      6.31680      2.10611        -0.003068     -0.040824      0.024508
Li	      6.01493      6.28308      4.23592        -0.040357     -0.053802      0.010728
Li	      4.20355      4.30196      4.18055        -0.018053      0.016026      0.007777
Li	      4.12243      2.12651      6.04809        -0.016336      0.041106      0.061768
Li	      6.32197      4.23154      6.05151        -0.009179      0.008461      0.006727
Li	      4.17778      8.41228      4.16797        -0.000717     -0.034160      0.002439
Li	      4.17146      6.39005      6.07493         0.059988     -0.013635      0.048707
Sc	      4.10057      2.15198      2.14762         0.039564     -0.164559     -0.050614
Ti	      4.31511      4.28268      8.12698         0.158011      0.163214     -0.331229
Mn	      6.17320      4.29267      2.06457         0.076579      0.035032      0.038989
Fe	      2.19887      6.39076      4.16384        -0.301832     -0.030005     -0.053365
Fe	      6.15135      8.39782      6.01538         0.106633     -0.074527      0.106414
Co	      6.20263      6.44197      8.21687         0.247326      0.039754     -0.057637
Co	      8.28070      8.55449     12.30238         0.101624      0.083671     -0.006724
Co	      6.25871      2.19702      4.11816        -0.004342     -0.099394     -0.026405
Co	      8.28461      4.32100      8.18141        -0.073962      0.048739     -0.000901
O	      2.03680      1.99560      1.96604        -0.036056      0.024688     -0.038658
O	      4.20931      4.23062      2.05673         0.066242      0.045511     -0.006663
O	      4.31965      2.12339      4.13465         0.051248      0.038876     -0.005897
O	      6.23087      4.18640      3.97351        -0.008045      0.005164     -0.078712
O	      6.39750      2.18450      5.99098         0.021049      0.019597     -0.032919
O	      8.31455      4.08335      6.26038        -0.018876     -0.097892      0.040306
O	      2.03881      4.34274      4.09449        -0.006894      0.002137     -0.135224
O	      4.05991      6.38944      4.12417         0.231912      0.001507     -0.044650
O	      4.02302      4.28744      6.30081         0.068954      0.004993      0.298373
O	      6.22271      6.49593      6.22181        -0.019226     -0.121348      0.367234
O	      6.14895      4.31984      8.21193        -0.129332      0.188638      0.009442
O	      8.28752      6.57566      8.24035        -0.283962      0.087777     -0.027182
O	      2.06402      6.43593      6.23689        -0.043671      0.017853      0.136183
O	      4.17222      8.50378      6.20836        -0.144750      0.050826      0.024285
O	      4.07463      6.32192      8.26069        -0.020914     -0.071934      0.021624
O	      6.26741      8.66638      8.25050         0.011396     -0.063875      0.022176
O	      6.32867      6.63770     10.19237        -0.065811     -0.088050     -0.319990
O	      8.23676      8.53780     10.28278        -0.034647      0.031227      0.028284
