# total energy = -214.03113547 eV
 
CRYSTAL
PRIMVEC
0.023774 6.280874 6.199147 
6.312010 0.008637 6.214746 
4.204094 4.193553 0.009910 
PRIMCOORD
36 1
Li	     10.49499      4.29045      6.31760         0.013653     -0.003098      0.081049
Li	      2.05999      2.06868      0.04279        -0.028401     -0.041359      0.073653
Li	      6.23132      4.22179      2.09047        -0.143800      0.052647      0.019931
Li	     10.46999      6.23133      8.27947        -0.075012     -0.087951      0.059410
Li	      2.17331      4.23200      2.05852         0.090525      0.026350     -0.020293
Li	      4.19446      4.19490      4.04354        -0.026514     -0.015433     -0.084073
Li	      8.48972      6.24934      6.32894        -0.007840     -0.043158      0.165602
Li	      8.43384      8.29817      8.30790         0.059488     -0.211310     -0.078406
Li	      6.40710      6.28809      8.32088         0.148252     -0.034699     -0.057842
Sc	      6.29808      4.11286      6.33709        -0.072298      0.141494      0.206409
Ti	      8.53212     10.41461     10.38402        -0.146580      0.207799      0.157266
Mn	      2.11082      2.11589      4.07549        -0.088186      0.127246     -0.089510
Fe	      6.35112      8.40573      6.29980         0.055996     -0.018838      0.000451
Fe	      4.16630      6.30536      6.27421         0.075908     -0.046608      0.016740
Cu	      6.33377      8.37249     10.31806        -0.026344      0.033458     -0.109054
Ni	      8.42825      6.28779     10.27529         0.086468     -0.072760     -0.040038
Ni	      4.17979      2.14864      2.07000        -0.061864      0.059187     -0.140944
Ni	      6.33939      4.19259     10.28594         0.062208     -0.048482     -0.038555
O	      4.20416      4.01186      2.07280         0.011691      0.268718     -0.008555
O	      2.19093      2.12220      2.20216        -0.195252     -0.034850      0.054589
O	      4.06901      2.01931      4.09648         0.200637     -0.017327      0.233391
O	      6.42273      4.34785      4.15677        -0.036279     -0.175098     -0.033925
O	      6.30757      2.12192      6.07290         0.002033     -0.088491     -0.007024
O	      8.37999      4.19765      6.05350         0.064303     -0.035213     -0.279147
O	      2.07901      4.08946      4.22349         0.122254     -0.058487     -0.051217
O	      4.33278      6.31805      4.17818         0.055667     -0.094132     -0.088675
O	      4.16503      4.29389      6.24927         0.046431     -0.120226      0.040134
O	      6.25717      6.32620      6.08223         0.096510     -0.023591      0.080380
O	      6.33222      4.20314      8.30504        -0.003511      0.004042     -0.064860
O	      8.44202      6.27766      8.35078         0.014645     -0.009650     -0.141624
O	      2.20423      6.21168      6.08317        -0.155245      0.115732      0.059456
O	      4.29816      8.31330      6.21097        -0.062445      0.124964     -0.186680
O	      4.22598      6.45553      8.27967        -0.029509     -0.120161      0.226160
O	      6.20459      8.40469      8.30144         0.139354      0.014142      0.075079
O	      6.25406      6.27497     10.33769        -0.038187      0.152721      0.008097
O	      8.45228      8.48672     10.30226        -0.148757      0.072423     -0.037372
