# total energy = -215.57666349 eV
 
CRYSTAL
PRIMVEC
-0.018637 6.352855 6.184489 
6.282866 0.008302 6.158049 
4.191652 4.220447 0.002560 
PRIMCOORD
36 1
Li	     10.41744     10.54641     12.33013        -0.028671      0.010849     -0.011770
Li	      2.22834      8.33337      6.18355         0.001066     -0.115406     -0.050861
Li	      2.10529      6.37449      8.18482         0.009889     -0.011655      0.000307
Li	      4.08994      2.09765      1.97970        -0.051748     -0.017314     -0.010556
Li	      6.27542      6.33386      4.14720        -0.013098      0.019939     -0.045475
Li	      6.30242      4.34632      6.15700        -0.005454      0.024088      0.022658
Li	      6.20424      4.34981     10.31627        -0.027316      0.071398     -0.003565
Li	      2.11168      6.27732      4.19069        -0.046587      0.032601      0.005259
Li	      6.26885      6.33162      8.22088        -0.021245      0.021036      0.085966
Sc	      6.29835      8.43489     10.24971         0.141857     -0.155394      0.035153
Ti	      6.41030      2.18789      8.14857         0.398452      0.206517     -0.223472
Mn	      4.18801      4.25187      4.08658         0.023665     -0.024679     -0.087048
Fe	      4.19715      6.33071     10.27073        -0.112246      0.041854      0.125949
Fe	      6.18568      8.50717      6.23086         0.067386     -0.010815     -0.057345
Cu	      8.30327      6.33790      6.18210        -0.022639      0.052280     -0.052048
Cu	      4.18972      6.38208      6.22673         0.096214     -0.059341      0.034726
Ni	      8.34434      4.26395      8.21116        -0.042877     -0.045645     -0.030393
Ni	      8.39152      8.45244      8.24597         0.044786      0.051445      0.072374
O	      6.23150      6.42835      6.19783        -0.053213     -0.016764     -0.000683
O	      1.98895      2.17690      1.99157        -0.361534     -0.131660      0.018191
O	      4.14396      4.30821      2.18136         0.097619      0.066077      0.060677
O	      4.16904      2.20406      4.16586        -0.040066      0.107216     -0.000882
O	      6.19015      4.19820      4.12112        -0.079652     -0.008005     -0.040213
O	      6.21272      2.05723      6.23779         0.079313      0.067889      0.243292
O	      8.30704      4.36947      6.09454        -0.006726     -0.062503      0.074919
O	      2.26893      4.23643      4.13086         0.114294     -0.019008      0.076352
O	      4.20360      6.14868      4.05006        -0.011423     -0.035912      0.009455
O	      4.15396      4.24720      6.09904         0.016578      0.000512     -0.129365
O	      6.26413      4.08444      8.28617        -0.005723     -0.247967     -0.044069
O	      8.43627      6.35700      8.12935         0.028213     -0.002995      0.094126
O	      2.21877      6.25441      6.17915        -0.056734      0.048463     -0.017105
O	      4.25625      8.33737      6.16582        -0.120032      0.119825     -0.005239
O	      4.17643      6.31790      8.32280        -0.000064      0.078417     -0.342630
O	      6.33308      8.45959      8.20421        -0.110505     -0.011935      0.082949
O	      6.13816      6.38510     10.30585         0.155318      0.084273      0.016472
O	      8.34234      8.58281     10.31400        -0.057099     -0.127681      0.093895
