# total energy = -213.36141276 eV
 
CRYSTAL
PRIMVEC
0.024670 6.259570 6.334294 
6.198025 0.015830 6.342963 
4.152122 4.199593 -0.009865 
PRIMCOORD
36 1
Li	      6.21590      6.29421     12.59442        -0.021723      0.106316      0.209911
Li	      2.05702      6.26787      8.39023        -0.040300      0.069716      0.058111
Li	      4.27863      6.23814     10.58396        -0.262416     -0.014873      0.052920
Li	      6.20544      2.10107      4.32968         0.004832      0.311351      0.137262
Li	      4.17734      6.26986      2.13981         0.087531     -0.064830     -0.053781
Li	      6.12584      6.25626      4.28626        -0.001813     -0.093822     -0.042733
Li	      4.12474      2.08854      6.28935         0.039120     -0.052215     -0.071975
Li	     10.33930      8.45002     10.63666         0.014762     -0.150404      0.052432
Li	      4.16449      6.26850      6.26584        -0.021727      0.002765     -0.038121
Sc	      8.27074      6.35182     10.60388         0.849047      0.041747      0.205346
Ti	      4.19578      8.24867      8.52258        -0.360124      0.056164      0.223276
Mn	      8.32589      8.40258     12.66739        -0.230115      0.179219      0.043589
Fe	      8.31240      4.23688      8.45232         0.121731     -0.204848      0.015907
Fe	      6.18007      4.21915      6.27517        -0.098770     -0.907000     -0.390643
Cu	      4.16692      4.20908      4.22337         0.468022     -0.124768     -0.196356
Cu	      6.21631      8.31215      6.27311        -0.115029     -0.047808     -0.330089
Cu	      4.12236      4.22960      8.42343        -0.022223     -0.006866      0.028823
Ni	      6.21993      6.26411      8.46511        -0.138709     -0.110828      0.135591
O	      4.06524      4.12241      6.21401         0.145187      0.123415      0.140996
O	      6.21982      6.05624      6.36949        -0.015951      1.537449      0.645343
O	      2.18272      2.16119      1.98036         0.143934      0.039964      0.120098
O	      4.10118      4.08069      2.17573        -0.080622     -0.003007     -0.043641
O	      4.17347      2.14068      4.04962         0.031318     -0.103404     -0.255016
O	      6.15928      4.20517      4.38442        -0.137799      0.008482     -0.621631
O	      6.36194      2.28933      6.36386         0.206520     -0.816234      0.141549
O	      8.28501      4.12245      6.43889         0.139565      0.132509      0.054941
O	      2.10405      4.17098      4.22593        -0.240552      0.027522     -0.321543
O	      4.15422      6.19398      4.17967        -0.119292      0.143363      0.011358
O	      6.14653      4.20682      8.30676         0.403383      0.663459      0.818307
O	      8.28147      6.28201      8.45411        -0.409022     -0.391616      0.012295
O	      2.05391      6.51213      6.34186         0.009476     -0.270758     -0.076588
O	      4.16332      8.38069      6.44894        -0.231309      0.050661      0.037893
O	      4.13197      6.30913      8.48501         0.508224      0.571067      0.004181
O	      6.24047      8.35590      8.24936        -0.324871     -0.695786      0.404143
O	      6.25030      6.29190     10.51306        -0.334759     -0.026887     -0.956467
O	      8.34204      8.41068     10.76886         0.034476      0.020781     -0.155687
