# total energy = -214.74114052 eV
 
CRYSTAL
PRIMVEC
0.016939 6.251727 6.334213 
6.330280 0.030928 6.319821 
4.247723 4.185705 -0.007183 
PRIMCOORD
36 1
Li	      6.41500      6.35662     12.54083         0.040677     -0.004568     -0.072069
Li	      2.05078      0.07681      2.10531        -0.029497      0.049516     -0.057986
Li	      4.16022      2.15320      2.11386        -0.022518     -0.026770     -0.092211
Li	      8.48127      4.27052      4.29735         0.092567     -0.011201      0.019880
Li	      6.27300      2.16163      4.29044         0.037664     -0.023819     -0.059089
Li	      0.07213      2.04650      2.04387         0.089708     -0.020467     -0.039790
Li	      6.38444      6.20277      4.26153        -0.034275      0.042880     -0.041023
Li	      2.12540      6.24126      4.36654        -0.029599      0.001682      0.110606
Li	      2.09799      4.26022      6.30045        -0.058242      0.085472      0.035428
Sc	      6.32484      6.29767      8.44583        -0.169447      0.028933      0.131932
Ti	      8.39030      8.37499      8.53822        -0.197992      0.279468      0.395403
Mn	      4.25834      4.19162      4.21282        -0.108920      0.110439     -0.126805
Fe	      2.20363      4.08712      2.09069        -0.007433     -0.224976      0.096579
Fe	      0.09282      4.16347      4.29071        -0.023453     -0.116743      0.169408
Cu	      2.10853      2.05700      0.03394         0.163551      0.098118     -0.104298
Cu	      4.25798      2.10476      6.25134         0.131780      0.023158     -0.027758
Cu	      6.41971      4.15158      6.20167        -0.046302      0.030476     -0.053054
Cu	      4.18353      6.27128      6.29976         0.027317     -0.069805      0.158086
O	      8.50954      4.18512      6.41026         0.157877     -0.026429     -0.060302
O	      2.17757      6.36386      6.34704        -0.125224     -0.127464     -0.003253
O	      4.22616      8.25896      6.25877         0.084089      0.236257     -0.018140
O	      2.14033      2.14860      2.00251         0.026854      0.092568      0.376893
O	      4.15716      4.20362      2.31862         0.117865     -0.002331      0.080072
O	      4.21970      2.25152      4.31395         0.010295      0.005598      0.179601
O	      6.12688      4.20869      4.15061        -0.075682     -0.031356      0.223546
O	      6.45796      2.21069      6.29427        -0.190365      0.028108     -0.077103
O	      2.14971      4.17876      4.13446         0.073885      0.000751     -0.012744
O	      4.21562      6.22156      4.31198         0.028735     -0.217376     -0.157648
O	      4.18902      4.22790      6.27102        -0.184996      0.016436     -0.042528
O	      6.28502      6.12779      6.34488        -0.012766     -0.094223     -0.168131
O	      6.33246      4.16901      8.55794         0.004204      0.041531     -0.123154
O	      8.45532      6.37290      8.24825         0.034074      0.007331     -0.100954
O	      4.25854      6.13438      8.35590         0.042378     -0.240234      0.117699
O	      6.53017      8.33769      8.42733         0.228542     -0.065254      0.043108
O	      6.35804      6.15308     10.51189        -0.022961      0.140115     -0.148759
O	      8.55378      8.36345     10.40118        -0.052391     -0.015819     -0.551441
