# total energy = -213.09292258 eV
 
CRYSTAL
PRIMVEC
0.016506 6.257478 6.177048 
6.268795 0.011980 6.181595 
4.190958 4.186446 -0.003825 
PRIMCOORD
36 1
Li	      6.25186      4.19425      2.15373        -0.021464     -0.035037      0.017603
Li	      4.18070      2.11142      2.16703        -0.005534      0.052564     -0.014092
Li	      4.22842      6.36161     10.19307        -0.005247      0.005040     -0.051393
Li	      6.20722      8.30213     10.21528        -0.053879     -0.015573     -0.070802
Li	      4.19729      6.23769      2.16098         0.004067     -0.010885      0.069021
Li	      4.21487      4.18345      3.97932         0.006621     -0.014423     -0.041896
Li	      0.06748      4.18521      4.07957        -0.001002      0.015575      0.047559
Li	      8.31965      6.24378     10.22033        -0.089402      0.005750      0.013118
Li	      6.27360      6.27774      8.39378        -0.023846      0.032309      0.023299
Sc	      6.27065      6.30251     12.29673         0.017794     -0.004410     -0.024766
Ti	      8.39113      8.37677      8.42239        -0.123334      0.089336      0.429092
Mn	      6.26015      4.19485      6.14840         0.087247     -0.047324     -0.153677
Fe	      2.15221      8.30137      6.24339         0.018269      0.018132     -0.303034
Fe	      6.29297      8.33246      6.15625        -0.095567      0.119892      0.046325
Ni	      2.11693      4.22780      2.15031        -0.029016      0.019884      0.062708
Ni	      2.09785      2.06557      4.08232         0.041404     -0.008789     -0.110725
Ni	      4.17460      2.10441      6.15568         0.063479     -0.047751     -0.006038
Ni	      4.19557      6.27361      6.16350        -0.025144      0.020925      0.027386
O	      2.09187      2.14036      1.97454        -0.038772     -0.054242      0.135284
O	      4.12997      4.22329      2.01110         0.096984      0.020746      0.009493
O	      4.00219      2.07872      4.18295         0.186799      0.031537     -0.118011
O	      6.27361      4.29382      4.26199         0.006135     -0.126224      0.088538
O	      6.31364      2.23750      6.08910         0.038806      0.067084      0.007230
O	      8.24139      4.16492      6.22878        -0.086210     -0.060702     -0.104975
O	      2.11341      4.05732      4.22488         0.023639      0.080735     -0.067367
O	      4.39278      6.27049      4.20165        -0.167957      0.013774     -0.069219
O	      4.27735      4.17140      6.21938         0.105181      0.019721      0.042051
O	      6.28037      6.19740      6.17359         0.001745     -0.110095      0.154222
O	      6.21421      4.18298      8.09320        -0.053236     -0.030223      0.000056
O	      8.39709      6.36200      8.16972         0.024354      0.099796      0.123422
O	      2.12202      6.26775      6.12835        -0.072877     -0.046704     -0.022349
O	      4.21267      8.34804      6.19425        -0.015688      0.076471     -0.002162
O	      4.17971      6.09837      8.15671         0.004273     -0.138388      0.088255
O	      6.42892      8.34394      8.07675         0.168861     -0.013200      0.191280
O	      6.25369      6.29489     10.34234        -0.018231     -0.029285     -0.052410
O	      8.40686      8.34873     10.27277         0.030747      0.003984     -0.363028
