# total energy = -220.97911947 eV
 
CRYSTAL
PRIMVEC
0.009519 6.193323 6.216283 
6.363748 0.020522 6.205485 
4.252708 4.132233 0.003287 
PRIMCOORD
36 1
Li	      2.15662      8.25061      6.23340         0.027573      0.008102      0.078335
Li	      6.35499      4.16961      2.11952         0.031071     -0.007784      0.018868
Li	      4.26505      6.18336     10.30892        -0.093987      0.050861      0.005904
Li	      4.20658      6.17305      2.15323        -0.081392     -0.110024     -0.058753
Li	      2.15803      4.14466      2.13055         0.101517     -0.006262     -0.068344
Li	      4.29128      4.13275      4.06819         0.099337      0.072472      0.015150
Li	      6.33428      8.27788      6.20481        -0.021249     -0.051410      0.067878
Li	      8.55165      8.19790      8.31257        -0.027964      0.000118     -0.100540
Li	      6.38343      6.23576      8.34730        -0.057690      0.115636     -0.101282
Sc	      4.13522      6.18862      6.18421        -0.084351     -0.127003      0.244062
Ti	      6.48141      4.13218      6.35923         0.075773      0.037266     -0.291380
Mn	      8.47596      6.25839      6.28519         0.011966      0.038614     -0.147356
Fe	      0.11025      6.15484      6.22720        -0.099468      0.147994      0.181935
Fe	      4.21598      2.07051      2.19555         0.289204      0.063222     -0.107443
Fe	      6.50596      8.30300     10.29514        -0.162216      0.025710     -0.043538
Co	      6.35312      4.17409     10.26434        -0.110050      0.132362     -0.588497
Cu	      8.48189      6.16371     10.21261         0.149789      0.056931      0.105426
Ni	      2.12993      2.08460      4.10975         0.066646      0.010813     -0.029431
O	      2.37750      2.06476      2.13396        -0.490947      0.058535     -0.193662
O	      4.26248      3.97777      1.98496        -0.000774      0.363720      0.026470
O	      4.28110      2.12289      4.23234        -0.021537     -0.002544      0.184869
O	      6.41543      4.06605      4.30026        -0.011470      0.088581      0.139811
O	      6.44630      2.09160      6.16786         0.030045      0.108502      0.181158
O	      8.41969      4.24308      6.24563        -0.111292      0.008560      0.045901
O	      1.90900      4.19652      4.11675         0.726847     -0.067433      0.093665
O	      4.34250      6.33714      4.09323        -0.071615     -0.963029     -0.016591
O	      4.35396      4.11617      6.23806         0.086378     -0.073458      0.059273
O	      6.29377      6.07709      6.16082        -0.002578     -0.046621      0.232698
O	      6.37512      4.14596      8.24385        -0.168549     -0.020968     -0.454329
O	      8.48625      6.23119      8.16433         0.010795     -0.030263      0.028814
O	      2.08421      6.17095      6.17783        -0.018968     -0.043822     -0.066703
O	      4.20855      8.30421      6.05614        -0.010876     -0.094151      0.766287
O	      4.24118      6.40599      8.24531         0.003990     -0.442009     -0.069849
O	      6.16379      8.27097      8.38415         0.199107      0.000921     -0.120017
O	      6.27049      6.18324     10.43517         0.064900      0.676177      0.022189
O	      8.51666      8.16718     10.27105        -0.327967      0.021684     -0.040981
