# total energy = -221.73643586 eV
 
CRYSTAL
PRIMVEC
0.001432 6.466143 6.251843 
6.169432 -0.043390 6.296899 
4.089368 4.316625 -0.004426 
PRIMCOORD
36 1
Li	     10.17406      4.33066      6.31442         0.002285      0.021335     -0.000885
Li	      6.14502      2.28397      4.26475         0.000419      0.061005     -0.011050
Li	      8.14569      4.35554      8.25968        -0.018390      0.014458     -0.012766
Li	      6.11650      6.29949      4.41960         0.019254     -0.002550     -0.037743
Li	      4.23134      4.36860      4.32649        -0.076527      0.018066     -0.010661
Li	      4.14380      2.27298      6.29348         0.062680      0.049724     -0.050740
Li	      6.12351      4.29320      6.26123        -0.037640      0.000637      0.094597
Li	      4.18510      6.32899      6.32716        -0.006540     -0.025525     -0.003301
Li	      4.25716      4.11290      8.19199        -0.064213     -0.048457      0.027720
Sc	      2.15670      4.22817      6.27140         0.126640      0.001011      0.003394
Ti	      4.07021      2.37226      2.28576         0.050316     -0.032355      0.399972
Mn	      8.17659      8.56868     12.51042        -0.093186     -0.170274      0.133338
Fe	      2.10469      0.03534      2.18228        -0.126269      0.094528     -0.363110
Fe	     10.25292      8.49292     10.37494        -0.020098     -0.052381      0.002525
Fe	      8.19672      6.35811     10.39461         0.015011     -0.034232      0.102739
Co	     10.24940      6.40259      8.34227         0.072813      0.035380      0.031347
Cu	      4.12494      0.01226      4.23225        -0.042092      0.060980      0.106699
Cu	      6.13073      6.36763      8.28224         0.334191     -0.097811     -0.124373
O	      8.19738      3.98126      6.15385         0.026909      0.028454      0.000294
O	      2.03779      2.12374      1.93759         0.087245      0.002041     -0.060243
O	      4.12698      4.32185      2.08390        -0.071526     -0.103340     -0.011955
O	      4.05177      2.31767      4.07804         0.039720      0.088545     -0.380937
O	      6.25776      4.35127      4.08326        -0.006090      0.043405      0.284004
O	      6.26252      2.05586      6.40771         0.042065     -0.073403     -0.070807
O	      1.94811      4.41365      4.23180         0.090594     -0.035775      0.000379
O	      4.05805      6.49335      3.99894         0.074074     -0.071608      0.029935
O	      4.09782      4.32764      6.29506        -0.036752      0.046725     -0.012179
O	      6.18055      6.50249      6.38543        -0.006606     -0.023414     -0.119716
O	      6.17231      3.99783      8.42830        -0.038544     -0.072291     -0.084184
O	      8.28441      6.38385      8.41773        -0.040775     -0.034146     -0.097558
O	      2.05648      6.55329      6.27224        -0.025902      0.030277     -0.031072
O	      3.98337      8.61771      6.25196        -0.034573      0.061633     -0.011079
O	      4.11655      6.72618      8.42117        -0.028949      0.113864      0.133516
O	      6.01055      8.82518      8.35058        -0.105569      0.057421      0.034019
O	      6.12540      6.24946     10.25255        -0.125193      0.057761      0.071801
O	      8.19207      8.36151     10.60183        -0.038780     -0.009690      0.038078
