# total energy = -222.22033792 eV
 
CRYSTAL
PRIMVEC
-0.035708 6.238720 6.449651 
6.268741 -0.007483 6.421408 
4.165372 4.126847 0.008430 
PRIMCOORD
36 1
Li	      6.26983      6.21508     12.64376        -0.001448     -0.008997     -0.107770
Li	      2.15210      6.13284      8.51153         0.033630      0.004988     -0.017547
Li	      4.29070      6.09741     10.67458         0.003289      0.038713      0.007650
Li	      6.35522      8.20107     10.65972         0.005761      0.012546     -0.021159
Li	      8.33661      4.22560      8.52412         0.005720     -0.024966     -0.016786
Li	      6.10744      4.27307     10.68889         0.022772     -0.047651     -0.001426
Li	      8.23555      6.28116     10.83047         0.029412     -0.032647      0.107107
Li	      4.02510      6.24196      6.57262        -0.008972      0.013179      0.044138
Li	      8.29206      8.31482      8.80491        -0.000007     -0.000140      0.033938
Sc	      8.31743      8.22420     12.74661         0.104775     -0.125772     -0.005723
Ti	      2.00898      2.09622      4.18526        -0.102926      0.071108     -0.190867
Mn	      4.16029      4.12028      4.30363        -0.047939      0.006262     -0.061614
Fe	      4.24214      8.27275      8.50105        -0.079464      0.117224      0.114874
Fe	      6.25743      4.15467      6.53975        -0.051227     -0.012706     -0.096581
Fe	      6.27171      6.20997      8.76797         0.015410     -0.001833     -0.131698
Co	      4.17181      2.05007      6.40164        -0.005391     -0.033347      0.034218
Ni	     10.30287      6.19247      8.58114         0.027712     -0.007517      0.009666
Ni	      2.05348      4.23678      6.46322        -0.068792      0.029692      0.056151
O	      2.11927      2.07850      2.29157         0.045310     -0.001580      0.294530
O	      4.16430      4.09335      2.41056        -0.009536     -0.051860      0.158149
O	      4.09385      2.17404      4.34763        -0.053766      0.077280      0.021244
O	      6.10051      4.23752      4.40666        -0.058872      0.107860     -0.007035
O	      6.15422      2.11202      6.50067        -0.044980      0.010148     -0.091313
O	      8.24486      4.21567      6.39692         0.030861      0.061559      0.021334
O	      2.20299      4.04408      4.36607         0.053129     -0.165463     -0.144029
O	      4.24110      6.08711      4.27356         0.178981     -0.058129      0.039150
O	      4.17698      4.03123      6.27085         0.117110     -0.090188     -0.120519
O	      6.37666      6.20738      6.32555         0.034285     -0.175175     -0.036660
O	      6.21993      4.16086      8.49416        -0.015704      0.063679      0.018926
O	      8.27611      6.21215      8.32214        -0.056098      0.006160     -0.094238
O	      2.05197      6.23591      6.47809        -0.005768      0.293878     -0.015864
O	      4.13135      8.33543      6.55477        -0.200655     -0.012300     -0.054483
O	      4.24276      6.32872      8.60571        -0.021610     -0.092421     -0.000971
O	      6.20058      8.24781      8.54054         0.100887      0.033804      0.168691
O	      6.28738      6.20695     10.63185         0.024850     -0.024402      0.067242
O	      8.32141      8.27296     10.80475        -0.000737      0.019016      0.019277
