# total energy = -223.22691502 eV
 
CRYSTAL
PRIMVEC
-0.013430 6.505026 6.065448 
6.272945 -0.032607 6.083964 
4.168553 4.334971 -0.007663 
PRIMCOORD
36 1
Li	      2.17347      6.47424      8.03688         0.100103      0.001310      0.219207
Li	      8.26244     10.71180     10.11640        -0.087897      0.169665      0.009320
Li	      6.36751      2.24612      4.08792        -0.164944      0.085652      0.017646
Li	      6.25357      6.50838      4.18948         0.026666     -0.144141      0.035887
Li	      8.27842      6.45005      5.98826        -0.088712      0.034817     -0.064488
Li	      4.08433      8.58584      4.10070         0.130763      0.024031     -0.111045
Li	      8.40692      6.60257     10.13602         0.029708     -0.114444     -0.036072
Li	      6.14740      8.58855      5.95782         0.161950     -0.129190     -0.012098
Li	      4.09515      6.60019      6.02073         0.124613     -0.167136     -0.000081
Sc	      4.20486      4.33993      4.14946         0.413367     -0.032510      0.406309
Ti	      6.21417      6.62902      8.12005        -0.091899     -0.076654     -0.420470
Mn	      2.01985      4.28195      2.06928        -0.186693      0.054986      0.057007
Fe	      0.15125      6.50355      5.90478        -0.369097     -0.064594      0.008271
Fe	      4.16101      2.15176      2.09335         0.032474     -0.011771      0.120154
Fe	      4.09006      6.46262      2.05180         0.007916      0.267058      0.101455
Co	      8.33071      8.64437     12.09480         0.205107     -0.136897     -0.697918
Co	      6.24629      4.34499      6.06069         0.073870      0.184154      0.201565
Cu	      8.29206      8.67453      8.15287         0.165175      0.066794     -0.247306
O	      2.06973      2.28272      1.90607         0.018260     -0.044260      0.400475
O	      4.23867      4.33787      1.96636        -0.085196     -0.037560     -0.190365
O	      4.19360      2.26250      3.96741         0.018322     -0.009558      0.214249
O	      6.28072      4.33748      4.19775        -0.077332     -0.016620     -0.530784
O	      6.39699      2.01000      6.13498        -0.029984     -0.003655     -0.272242
O	      8.23753      4.11904      6.16329         0.218463      0.409881      0.004804
O	      2.10758      4.26202      3.96489        -0.201188      0.031809     -0.027540
O	      4.18559      6.43204      3.93181        -0.089632      0.163080      0.202510
O	      4.28494      4.30100      6.18317        -0.247365     -0.017913      0.159510
O	      6.27832      6.42759      6.22676        -0.006310      0.032092      0.150574
O	      6.14793      4.21997      8.01173         0.037075      0.071478      0.322745
O	      8.32452      6.20185      8.06275        -0.025333      0.030211      0.002353
O	      2.06452      6.71720      6.04015         0.032586     -0.249871      0.139409
O	      4.03967      8.84351      6.11931        -0.022505     -0.179496     -0.181202
O	      4.29007      6.69249      8.09550         0.028111     -0.153258     -0.043974
O	      6.28083      8.53661      8.04279        -0.047041      0.008865      0.043399
O	      6.27960      6.45649     10.04342         0.031813      0.000942      0.048282
O	      8.35993      8.66722     10.12435        -0.035216     -0.047296     -0.029547
