# total energy = -224.07247125 eV
 
CRYSTAL
PRIMVEC
-0.019666 6.333600 6.191308 
6.301782 -0.041049 6.212589 
4.179454 4.214745 -0.005566 
PRIMCOORD
36 1
Li	      2.05955      8.33113      6.11512        -0.003055     -0.039636     -0.014814
Li	      6.21352      4.21590      2.13098        -0.007630      0.023145     -0.004014
Li	      4.29500      2.03994      2.23029         0.008438     -0.037125      0.048707
Li	      4.13971      0.10050      4.15310         0.000947     -0.017898      0.011943
Li	      6.16991      2.14911      4.13814         0.010061      0.027781      0.006398
Li	      2.23337      1.99368      4.13001        -0.024225     -0.023399     -0.006892
Li	      4.30281      4.02700      4.14270         0.005418      0.008290     -0.005326
Li	      8.33155      6.32357     10.39690         0.007809      0.013374     -0.019985
Li	      2.04358      4.25177      6.18982        -0.000313      0.006754      0.015509
Sc	      4.04822      6.31646      6.09631        -0.045826      0.038006      0.032820
Ti	      2.21653      4.09664      2.12478         0.211729     -0.278147      0.157738
Mn	      6.32598      4.15060      6.09044         0.031001     -0.017251     -0.124347
Fe	     10.44414      8.42918     10.38787        -0.033561     -0.002751     -0.058345
Fe	      8.26083      8.45746      8.35196         0.008017      0.031134     -0.089085
Fe	      6.23654      6.43130      8.32181         0.028582     -0.013498     -0.044474
Co	     10.44871      6.29110      8.27800         0.076719     -0.093427      0.017328
Co	      4.18937      2.09835      6.17503        -0.015608      0.003817     -0.210886
Ni	      0.05727      6.32742      6.13558        -0.030091     -0.018785      0.002361
O	      1.93996      2.24314      2.00427         0.039331      0.288060      0.001031
O	      4.10775      4.35127      2.05179        -0.222691      0.061900      0.085282
O	      4.18832      2.09339      4.27063         0.013364     -0.006535      0.120112
O	      6.29889      4.17931      4.26596        -0.010178      0.010143      0.040943
O	      6.15211      2.02700      6.34117         0.030582      0.069672      0.069673
O	      8.38802      4.36095      6.29089        -0.087663     -0.000909      0.075180
O	      1.99094      4.27611      3.94204         0.042900     -0.010756     -0.218308
O	      4.18026      6.42602      4.01748        -0.002163     -0.024146     -0.103383
O	      4.23273      4.11856      6.26389         0.002889      0.048395      0.033844
O	      6.37307      6.28689      6.30794        -0.036815      0.024275      0.006481
O	      6.31700      4.08518      8.16044        -0.016901      0.002769      0.041749
O	      8.43106      6.28741      8.16365        -0.058450     -0.008002      0.014531
O	      2.08617      6.30899      6.20071         0.159263     -0.016022     -0.023385
O	      4.16872      8.42283      6.12076        -0.013074     -0.138459      0.079863
O	      4.26884      6.24332      8.20322        -0.036844      0.004588     -0.007281
O	      6.31666      8.35218      8.29776        -0.023660      0.091895     -0.004368
O	      6.31086      6.20438     10.25187         0.021259      0.013779     -0.035889
O	      8.47026      8.39232     10.23811        -0.029558     -0.021033      0.109291
