# total energy = -226.29147847 eV
 
CRYSTAL
PRIMVEC
-0.027554 6.248796 6.375479 
6.234556 -0.000011 6.347485 
4.170723 4.161900 -0.014497 
PRIMCOORD
36 1
Li	      0.09378      6.16308      6.26836         0.051048     -0.021444     -0.034735
Li	      6.26373     10.37084      8.50552        -0.006964     -0.163620      0.008786
Li	      4.22907      8.25290      8.57845         0.127543      0.011639      0.095961
Li	      4.15111      6.29503     10.48772        -0.001302     -0.012128     -0.034112
Li	      6.17905      2.07664      4.19849         0.002954      0.051992     -0.189683
Li	      6.31920      6.13585      4.22877         0.020569     -0.093301      0.009191
Li	      8.19685      6.28715     10.64274        -0.068810      0.068364     -0.011598
Li	      6.12999      8.43587      6.43324        -0.047319      0.062724      0.255027
Li	      6.16000      6.29765      8.59642         0.018519      0.091074      0.034767
Sc	      4.17762      6.24039      6.40490         0.038052     -0.004708      0.118968
Ti	      2.18884      4.15755      2.18038        -0.014859     -0.039304      0.052218
Mn	      6.21976      4.26565     10.60004        -0.080525     -0.022814     -0.089756
Fe	      8.28170      8.26937     12.63530        -0.047994      0.104202     -0.102322
Fe	      4.17350      6.25246      2.14817         0.007993      0.173255     -0.161710
Fe	      4.08558      2.07762      6.20719         0.017985     -0.098352      0.158274
Co	      8.09288      8.38681      8.55540         1.609426      0.189983      0.021782
Co	      4.19340      4.14888      4.21769         0.131434     -0.030598     -0.050568
Co	      6.22497      4.16307      6.33187         0.077070      0.043859      0.084155
O	      2.02296      2.20747      2.01411         0.095470      0.185270      0.033848
O	      4.07222      4.23088      2.06123        -0.257604     -0.037978     -0.056714
O	      4.17031      2.15495      4.30590        -0.329346     -0.462180     -0.125092
O	      6.11221      4.14959      4.41809         0.435293      0.267975      0.231760
O	      6.24508      2.19874      6.41182        -0.054021     -0.039098      0.024636
O	      8.17519      4.17531      6.43115        -0.011915     -0.053876      0.077916
O	      2.06278      4.18209      4.08101        -0.235364      0.050411     -0.298181
O	      4.17868      6.31503      4.14904        -0.072276      0.287726      0.129345
O	      4.25631      4.10418      6.44311        -0.248875      0.004192      0.337141
O	      6.28036      6.13206      6.34140        -0.040600     -0.089409     -0.076972
O	      6.25611      4.11445      8.36724        -0.062009      0.044034     -0.024457
O	      8.37998      6.17293      8.35933        -0.111617      0.111884      0.030797
O	      2.09761      6.32942      6.37014         0.003316      0.017057     -0.109611
O	      4.08092      8.30308      6.37156         0.012415     -0.017458     -0.007825
O	      4.14305      6.17307      8.45324        -0.360376     -0.695362      0.081239
O	      6.33007      8.30095      8.48426        -0.386548      0.163241     -0.024612
O	      6.22223      6.10566     10.61032         0.047504     -0.028919      0.045484
O	      8.38216      8.34419     10.60252        -0.258266     -0.018333     -0.433346
