# total energy = -219.30900971 eV
 
CRYSTAL
PRIMVEC
-0.002624 6.413647 6.267141 
6.134835 0.005713 6.258397 
4.111067 4.291065 -0.017012 
PRIMCOORD
36 1
Li	      4.07476      0.02174      4.14802         0.039313     -0.033623      0.034204
Li	     10.11339      6.45838      8.44138        -0.146768      0.105395      0.057881
Li	      2.03684      4.32993      2.16499        -0.085159      0.085352      0.073310
Li	      2.04315      2.25706      4.12577        -0.061120      0.101365      0.070885
Li	      4.00889      4.26381      4.14967        -0.077027      0.013828      0.079565
Li	      8.15473      6.51346      6.30125         0.012454      0.054046      0.026634
Li	      2.11238      6.35465      4.06091         0.052443     -0.033688     -0.074412
Li	      2.16158      4.29754      6.17384         0.032192     -0.027688     -0.092794
Li	      8.22099      8.44367      8.29719         0.054362     -0.121585     -0.027129
Sc	     10.19418      4.31780      6.25814        -0.182349      0.078607     -0.215236
Ti	      6.10562      4.36487      6.20588        -0.396684      0.212606      0.169751
Mn	      4.09042      2.13502      2.11589         0.282420      0.154045      0.108032
Fe	      6.21330      8.58860     10.40168         0.246628     -0.160105      0.267417
Fe	      4.14290      8.46020      4.11566        -0.279234      0.070446     -0.173349
Fe	      6.26597      6.40269      8.35338         0.038624     -0.314504     -0.029743
Cu	      6.16144      4.32709      2.12924         0.129254      0.150955      0.163215
Ni	      2.03811      2.14711      0.03998        -0.069056      0.164857     -0.331316
Ni	      4.06029      6.40757      6.22969         0.226737     -0.112144     -0.424276
O	      2.22277      2.17423      2.09489        -0.084970     -0.441676      0.097191
O	      4.15011      4.10647      2.08283         0.075424     -0.148616      0.042102
O	      4.20553      2.12983      3.99683        -0.143072     -0.017124     -0.167236
O	      6.17753      4.17739      4.22251         0.000676      0.067109     -0.201494
O	      6.10882      2.17268      6.18729        -0.015427     -0.032844      0.038583
O	      8.10510      4.24499      6.25448         0.014833      0.015452      0.055141
O	      1.86428      4.28344      4.19822         0.586527      0.073646      0.053951
O	      4.08693      6.57763      4.17146         0.002609     -0.413972      0.067219
O	      4.19428      4.31164      6.21986         0.354027     -0.006280      0.025553
O	      6.15070      6.27180      6.26664         0.012547     -0.244595      0.064218
O	      6.09684      4.35808      8.30265         0.005061      0.062176     -0.354873
O	      8.10754      6.43723      8.31586         0.212599     -0.043100     -0.043130
O	      2.03823      6.47584      6.42013        -0.030666     -0.084941      0.197661
O	      4.09543      8.58365      6.32013         0.102087      0.085185      0.305758
O	      4.15698      6.60310      8.29985        -0.357765      0.122565      0.135623
O	      6.08919      8.43681      8.38795        -0.178924      0.350569     -0.189855
O	      6.13837      6.39312     10.43182        -0.068342      0.187766      0.108357
O	      8.22846      8.56213     10.44932        -0.304255      0.080515      0.082593
