# total energy = -218.27396335 eV
 
CRYSTAL
PRIMVEC
0.034934 6.197259 6.300669 
6.231844 0.047877 6.288253 
4.196568 4.165209 -0.010208 
PRIMCOORD
36 1
Li	      4.21962      2.08449      2.19843         0.008366      0.035184      0.008634
Li	      4.27709      6.33021     10.41999         0.091984      0.054456      0.029792
Li	      6.16301      2.08148      4.17859        -0.028501      0.004547      0.055762
Li	      4.18423      6.24634      2.15150        -0.018867     -0.008280      0.036323
Li	      6.34262      6.26014      4.27712        -0.001463      0.005557      0.019874
Li	      4.06122      2.14742      6.17410        -0.029186     -0.011169     -0.057613
Li	      4.20097      8.27625      4.23501         0.031933      0.001494      0.072122
Li	      4.25662      6.23548      6.22621         0.057776     -0.043739     -0.080778
Li	      6.23483      6.26357      8.39179        -0.034679     -0.022797     -0.045226
Sc	      6.20887      0.11945      6.23672        -0.179976      0.055917      0.032890
Ti	      2.19515      0.05923      2.25091         0.190103      0.091566      0.235570
Mn	      6.21777      4.21601      6.26178         0.201061     -0.009107     -0.161029
Fe	      2.20875      8.28121      6.25056        -0.095498      0.106468      0.098619
Fe	      2.07853      4.15000      2.18449        -0.076854     -0.105920     -0.043966
Fe	      8.37447      6.30773     10.41088        -0.046675     -0.218592      0.121892
Cu	      6.25587      8.18593      6.27328        -0.039908     -0.118570     -0.114421
Cu	      8.37784      8.29907      8.38167         0.103493     -0.053435     -0.018371
Ni	      4.17619      4.11774      4.17787        -0.007648      0.084508      0.007753
O	      6.23512      6.07553      6.27634         0.062051      0.320830     -0.023043
O	      2.09601      2.03179      2.03973         0.002836     -0.098661      0.057773
O	      4.16903      4.16184      2.11949         0.035360     -0.003395     -0.178643
O	      4.19125      2.22988      4.17764         0.026584     -0.432683     -0.042200
O	      6.26297      4.19137      4.16229         0.219760      0.004901     -0.241230
O	      6.36731      2.22246      6.26645        -0.040968     -0.155253     -0.020698
O	      8.26105      4.17548      6.38719         0.252063      0.019953     -0.006954
O	      2.07857      4.15077      4.18550        -0.204939     -0.010960     -0.029255
O	      4.06295      6.05519      4.19760         0.154590      0.328342      0.006182
O	      4.31048      4.12889      6.16665        -0.163563     -0.026504      0.351489
O	      6.24307      4.16487      8.18977        -0.031994     -0.025944      0.170694
O	      8.33214      6.20714      8.43200        -0.068176      0.106111     -0.130428
O	      2.09632      6.29463      6.41845         0.011720     -0.094909      0.001112
O	      4.17408      8.34026      6.30667        -0.066685     -0.030799      0.032904
O	      4.06972      6.16889      8.45679        -0.114161      0.055863     -0.020557
O	      6.38117      8.43633      8.23504        -0.073116     -0.014504      0.127767
O	      6.36404      6.26639     10.54002        -0.098093      0.005104     -0.006196
O	      8.44279      8.26023     10.58433        -0.028733      0.204421     -0.246542
