# total energy = -99.92060018 eV
 
CRYSTAL
PRIMVEC
0.000123 2.297591 2.296128 
3.725009 -0.067120 0.067390 
-0.353764 10.141571 0.001781 
PRIMCOORD
16 1
Li	      3.66273      2.63515      1.88141        -0.000408      0.004918     -0.012954
Li	      1.82585      2.34339     -0.08985        -0.001823     -0.005044     -0.005893
Li	     -0.00946      4.33364      0.18129         0.002473     -0.009400      0.004822
Li	      1.63075      7.47671     -5.14257         0.004987     -0.010392     -0.012085
Ti	      3.45425      7.23868     -2.87950         0.028248     -0.210601     -0.061422
Ti	     -0.19145      9.74172     -5.38349        -0.027317     -0.065500     -0.211011
Ni	      1.94609      4.40737     -2.21344        -0.115677      0.132293     -0.139631
Ni	      1.35274     10.38277     -8.19419         0.110085     -0.131215      0.136607
O	      3.49332      7.78092     -4.77705         0.000047      0.058909      0.059817
O	      1.67165      7.44723     -7.22751         0.013694     -0.005676     -0.058501
O	      3.40653      5.41428     -3.16430         0.096938      0.378691     -0.085584
O	      1.59038      5.39608     -5.18050        -0.013375     -0.063038     -0.000799
O	     -0.03618      2.36943     -0.15128         0.002244     -0.003056     -0.005174
O	      1.85388      4.97237     -0.47932         0.010835     -0.205149      0.221906
O	     -0.14395      9.45967     -7.20909        -0.096645     -0.081239      0.381170
O	      1.44560     12.12467     -7.63724        -0.014307      0.215497     -0.211269
