# total energy = -219.76343880 eV
 
CRYSTAL
PRIMVEC
0.039391 6.310913 6.295539 
6.326063 0.047115 6.288203 
4.240918 4.226416 0.007204 
PRIMCOORD
36 1
Li	      6.38820      6.33279     12.40837         0.001221     -0.002594     -0.076826
Li	      4.34759      8.39367      8.40188         0.064683     -0.018039     -0.006274
Li	      4.44081      6.41467     10.48597         0.042424      0.028441     -0.015969
Li	      8.39965      6.37083      6.25052         0.002937     -0.031922     -0.017018
Li	      6.35515      4.26548      6.24691         0.037632      0.002911     -0.009156
Li	      6.31297      4.41387     10.50872         0.019450      0.090914      0.010156
Li	      8.35674      6.33926     10.54274         0.007830     -0.004390      0.002080
Li	      6.34723      8.39928      6.28084        -0.052805     -0.005710      0.009377
Li	      6.30683      6.45017      8.46120        -0.041516      0.037331      0.066178
Sc	      8.38605      4.33201      8.37448        -0.027959      0.042409      0.021296
Ti	      8.47754      8.51444     12.39902         0.071928      0.103953     -0.351567
Mn	      4.23475      4.21606      4.28270        -0.195948     -0.294070     -0.081644
Fe	      2.16468      6.30861      8.38639         0.041771     -0.194070     -0.107855
Fe	      4.33455      6.37520      6.29083         0.041968      0.071838      0.184949
Fe	      8.51092      8.40126      8.36049        -0.069761      0.119045      0.101243
Cu	      6.36231      8.37114     10.50261         0.012821     -0.010530     -0.135126
Cu	     10.54596      6.39300      8.39220         0.078630     -0.044526     -0.118068
Cu	      6.40087      6.34085      4.27376         0.091059     -0.040361     -0.135250
O	      4.34581      2.27725      4.21032        -0.459017      0.207535      0.028654
O	      6.37983      6.42142     10.44983         0.071819     -0.155224     -0.054618
O	      2.07259      2.10399      2.11973        -0.089798     -0.098421     -0.029040
O	      4.24846      4.31167      2.28499         0.056306     -0.123279      0.147262
O	      6.18798      4.27786      4.14521         0.133149      0.023787      0.205115
O	      6.50151      2.11433      6.20080        -0.112839      0.039902      0.269100
O	      8.47720      4.10879      6.34073        -0.017551     -0.124007      0.036667
O	      2.30596      4.12998      4.19904        -0.028837      0.110876     -0.004677
O	      4.15627      6.12397      4.33025        -0.027341     -0.024191     -0.114691
O	      4.24233      4.26701      6.26127         0.033050      0.006627     -0.039630
O	      6.29329      6.35225      6.23112        -0.044513     -0.092375      0.171050
O	      6.29692      4.15051      8.44030         0.096287      0.201955      0.005543
O	      8.52361      6.40657      8.34011        -0.038153     -0.093556     -0.024238
O	      2.17842      6.43708      6.41681         0.020325      0.123942     -0.047123
O	      4.12464      8.36147      6.27752        -0.088706     -0.033796      0.051424
O	      4.19577      6.23280      8.35196        -0.040415      0.037906     -0.018811
O	      6.46604      8.52991      8.43871         0.012909      0.078322     -0.117056
O	      8.46210      8.46779     10.50352         0.396958      0.063367      0.194542
