# total energy = -219.67775368 eV
 
CRYSTAL
PRIMVEC
0.047379 6.296260 6.300318 
6.332424 0.034174 6.313517 
4.244268 4.229085 0.000143 
PRIMCOORD
36 1
Li	      4.30711     10.37617      6.30447        -0.001669      0.016812     -0.004217
Li	      2.27423      8.43202      6.33198        -0.011362      0.005411     -0.021270
Li	      8.57289     10.47010     10.51524         0.034143     -0.024536      0.026061
Li	      0.08048      2.12473      2.17500        -0.019660      0.004315      0.003230
Li	      8.38600      4.22369      8.47263        -0.044163      0.002037      0.002869
Li	      2.05302      2.15386      4.12534        -0.021418      0.022252      0.025558
Li	      6.36541      4.31238     10.57707        -0.055387      0.085348      0.031299
Li	      8.51247      6.29429     10.43389         0.026533     -0.008468     -0.075461
Li	      6.41735      6.25566      8.45648         0.050081     -0.002907      0.039667
Sc	      8.43882      6.29727      6.36398        -0.012507     -0.113864      0.031574
Ti	      6.47286      8.28106     10.53138         0.108566     -0.518878      0.073048
Mn	      2.09709      0.08203      2.07832        -0.019603     -0.066774     -0.039425
Fe	      4.19363      4.29847      4.12034         0.065050     -0.137231     -0.022027
Fe	      6.42226      4.26444      6.36509        -0.052715      0.007828     -0.043403
Fe	      4.35172      4.19203      8.47674        -0.071541      0.071472      0.016612
Ni	      4.23449      8.42785      8.34312         0.037308     -0.010159      0.062334
Ni	      6.32423      8.45624      6.26682         0.081999     -0.047865     -0.003670
Ni	      4.24115      6.36828      6.28860         0.017248     -0.006450     -0.075232
O	      2.15335      1.94506      2.11424        -0.101745      0.009881     -0.074466
O	      4.39386      4.22154      2.12201         0.042347      0.084899     -0.130069
O	      4.34644      2.31738      4.18073         0.047880     -0.159597      0.047005
O	      6.20397      4.20959      4.14579         0.135218     -0.029802     -0.036560
O	      6.30590      2.24602      6.13694         0.049110     -0.043757     -0.098763
O	      8.34802      4.28044      6.29689         0.153139     -0.024314     -0.020703
O	      2.34262      4.21442      4.21610        -0.307308     -0.021525     -0.091549
O	      4.22424      6.12167      4.24471         0.015170      0.325494     -0.079227
O	      4.28521      4.24336      6.34975         0.043131     -0.061373      0.008607
O	      6.35634      6.29308      6.28348         0.102929     -0.024246      0.041797
O	      6.30059      4.24234      8.35856         0.104189      0.008014      0.068955
O	      8.47975      6.47979      8.36568        -0.016372     -0.140927      0.011692
O	      2.17247      6.25997      6.49571        -0.083713      0.136444      0.062134
O	      4.33592      8.37432      6.29633        -0.162498      0.106338     -0.063102
O	      4.09770      6.28840      8.42267        -0.054746      0.011061      0.060814
O	      6.40662      8.57099      8.47190         0.039065      0.080743      0.087560
O	      6.33457      6.46872     10.48616         0.049000      0.477126      0.055245
O	      8.37313      8.46167     10.43801        -0.165698     -0.012803      0.123084
