# total energy = -225.45844789 eV
 
CRYSTAL
PRIMVEC
0.013957 6.295368 6.321511 
6.171984 0.028951 6.306688 
4.138505 4.211174 -0.004862 
PRIMCOORD
36 1
Li	      6.15326      6.34268     12.57011         0.003328     -0.035512      0.028147
Li	      6.17937      2.13558      4.24177        -0.008371      0.030116      0.029167
Li	      6.24693      6.29136      4.32720         0.036353     -0.007509      0.020843
Li	      4.12839      4.19389      4.29160        -0.073943     -0.016133     -0.031812
Li	      6.17273      4.24128      6.21422         0.022716      0.011031     -0.055295
Li	      6.18574      4.27217     10.55331         0.031497      0.028441      0.028711
Li	      6.25738      8.34466      6.29750        -0.012951      0.007234     -0.041708
Li	      4.06640      4.26187      8.37849        -0.000950     -0.007410     -0.081269
Li	      6.18697      6.32915      8.39897         0.012800     -0.015265     -0.062098
Sc	      4.20520      8.36224      8.50037         0.049528      0.016642     -0.059095
Ti	      6.12991      2.25516      8.46707        -0.106500      0.365095      0.078035
Mn	      8.23672      4.29176      8.44584        -0.016817     -0.048250      0.023250
Fe	      8.26444      8.45105     12.53359        -0.100886      0.109868      0.143507
Fe	      6.24483     10.40886      8.53899        -0.104677      0.090770     -0.296757
Fe	      8.07319      6.33285     10.56720         0.119706     -0.036747     -0.088749
Fe	      4.27692      6.17542      6.23581        -0.075176      0.047635     -0.095563
Co	      4.09068      2.17138      6.27800        -0.068747      0.174880     -0.018383
Cu	      4.19779      6.29868     10.55681         0.044856     -0.050952     -0.036801
O	      1.97286      2.01095      2.01651         0.001633     -0.061429      0.015637
O	      4.12195      4.22408      2.13333         0.035495      0.030720      0.035052
O	      4.13463      2.04167      4.32740         0.033197      0.056523      0.039417
O	      6.35204      4.22900      4.08967        -0.094654      0.017293      0.263159
O	      6.11331      2.12562      6.46967         0.003304     -0.012090      0.040145
O	      8.24269      4.28922      6.49320        -0.001937     -0.048201      0.129509
O	      2.05061      4.33925      4.04754         0.033680     -0.066443      0.058981
O	      4.06623      6.29940      4.11423         0.016441      0.052638     -0.053472
O	      4.14596      4.18741      6.24578         0.020293     -0.109560     -0.000210
O	      6.22989      6.33385      6.28809         0.187346     -0.023206     -0.016243
O	      6.26466      4.10425      8.44929        -0.095574     -0.268471     -0.014674
O	      8.31560      6.41913      8.32942         0.134360      0.041359      0.044915
O	      2.12223      6.36530      6.24627         0.037994     -0.014461      0.187572
O	      4.05797      8.32792      6.37339         0.048941     -0.051584      0.068422
O	      4.10840      6.29671      8.23835         0.013344     -0.035205     -0.078293
O	      6.16651      8.50371      8.39906         0.018538     -0.195663     -0.008767
O	      6.18455      6.32634     10.51355        -0.149741      0.045085     -0.018136
O	      8.22916      8.41587     10.61882         0.005571     -0.021239     -0.177145
