# total energy = -225.98766446 eV
 
CRYSTAL
PRIMVEC
0.048760 6.206982 6.322098 
6.313895 0.022286 6.348571 
4.224136 4.170493 -0.000062 
PRIMCOORD
36 1
Li	      6.30672      0.11875      6.33795        -0.005507      0.024631     -0.036777
Li	      6.37329      8.22591     10.57149        -0.042167      0.004073     -0.010915
Li	     10.37626      6.26409      8.39400         0.138177      0.007769      0.041793
Li	      8.43634      6.25566      6.53494         0.024787     -0.008556     -0.217780
Li	      8.40553      6.28775     10.45905        -0.016224      0.023602      0.206744
Li	      6.42428      8.21451      6.42210         0.048181     -0.038332     -0.086093
Li	      4.31026      6.19952      6.37569        -0.020978     -0.022533      0.014319
Li	      8.34947      8.19133      8.35816        -0.022271      0.100490      0.030122
Li	      6.49922      6.28952      8.37473        -0.228521      0.018439      0.036958
Sc	      4.22248      4.20556      4.30512         0.022911     -0.064891      0.127126
Ti	      4.27101      8.29426      4.26457        -0.079320      0.113705      0.054951
Mn	      4.27807      6.25065     10.54261        -0.001513     -0.012348     -0.038539
Fe	      8.31221      2.08589      6.36612         0.163933     -0.022655     -0.199442
Fe	      2.18394      6.15590      8.30974        -0.056994     -0.110652      0.096338
Fe	      4.34271      8.25885      8.31917         0.178585     -0.020768      0.001196
Fe	      6.29827      4.23421      6.53366        -0.005242     -0.078038     -0.098184
Co	      8.44327      4.22214      8.47205         0.151651      1.736836     -0.244079
Ni	      6.34636      6.26219      4.27458         0.065337     -0.035504      0.028897
O	      2.21730      2.13953      2.08049        -0.055117     -0.436900      0.031415
O	      4.19675      4.09657      2.15209         0.804217     -0.017252      0.093155
O	      4.20909      2.03094      4.11212         0.084746      0.043109     -0.027923
O	      6.40347      4.20646      4.15283         0.000681     -0.104854      0.016213
O	      6.40239      2.21407      6.31313        -0.211881     -0.043154      0.120769
O	      8.39077      4.12800      6.50781        -0.067038     -0.171463     -1.025764
O	      2.08421      4.16540      4.12987        -0.090725     -0.060136      0.986691
O	      4.26930      6.31958      4.20969        -0.163887      0.064244     -0.060844
O	      4.32828      4.12802      6.30241        -0.079101     -0.017391     -0.011013
O	      6.36750      6.14607      6.28761         0.085767      0.090121      0.183108
O	      6.48715      4.16273      8.55024        -1.055623     -0.231326      0.265108
O	      8.45126      6.11340      8.49759         0.118738     -0.374197      0.020113
O	      2.09926      6.31666      6.38997         0.007084      0.007914     -0.174030
O	      4.23745      8.30108      6.21547        -0.072648      0.001948     -0.052017
O	      4.16101      6.28490      8.39767         0.078986     -0.009530     -0.026770
O	      6.30116      8.37037      8.40025         0.066901     -0.132098      0.009474
O	      6.19905      6.13154     10.57917         0.164086     -0.116098     -0.071470
O	      8.58992      8.43100     10.59595         0.069991     -0.108206      0.017151
