# total energy = -222.83872438 eV
 
CRYSTAL
PRIMVEC
-0.019972 6.322284 6.321217 
6.274910 -0.007861 6.308861 
4.170940 4.195005 0.006975 
PRIMCOORD
36 1
Li	     10.40549      4.23253      6.33413        -0.014074     -0.007230      0.047355
Li	      2.06795      8.38077      6.36154         0.024999     -0.021507      0.039940
Li	      8.28934      4.30199      8.27921        -0.036740      0.011083     -0.046773
Li	      8.36490      6.24895      6.43044        -0.018850     -0.021436      0.000649
Li	      6.24152      4.26125      6.46735         0.000241      0.032528     -0.002248
Li	      8.34541      6.30556     10.44980        -0.015900     -0.012999     -0.067325
Li	      6.25695      8.38738      6.37187        -0.004025      0.002029     -0.040329
Li	      8.33959      8.31340      8.36290        -0.001861     -0.015486     -0.020658
Li	      6.37615      6.31388      8.32847         0.028334     -0.011716     -0.047009
Sc	      6.25659      6.30678      4.25403         0.064960     -0.050826      0.048137
Ti	      8.40806     10.40132     10.67535         0.199651     -0.346567      0.225597
Mn	      6.27446      2.08717      4.29405         0.319972     -0.451113      0.094477
Fe	      2.11086      6.28710      8.31945        -0.007516      0.042661      0.115519
Fe	      6.13472      2.14621      8.23425         0.138346      0.018629     -0.062478
Fe	      4.07682      4.25113      4.25748         0.032066      0.124533     -0.074123
Fe	      6.29695      4.22617     10.46813         0.094337     -0.081337      0.064592
Cu	      4.17077      6.28861      6.35748         0.038449      0.135878     -0.030373
Ni	      4.16005      8.43466      8.34096        -0.055076      0.016495     -0.030543
O	      2.07044      2.00913      2.11816        -0.054257     -0.046079     -0.021640
O	      4.25566      4.19656      2.14887        -0.038620      0.114658     -0.007127
O	      4.21110      2.16128      4.25752        -0.854849     -0.051181      0.048086
O	      6.26995      4.13598      4.22061        -0.028768      1.024851     -0.064855
O	      6.28700      2.07583      6.22859        -0.018760     -0.019503      0.176502
O	      8.32330      4.23165      6.17016         0.013244     -0.023611     -0.349616
O	      2.08477      4.16912      4.18733         0.017912      0.020769      0.011629
O	      4.18155      6.29313      4.00096        -0.043750     -0.066145     -0.044594
O	      4.16607      4.39815      6.20340        -0.015192     -0.111856      0.069830
O	      6.06149      6.30693      6.31454         0.116556     -0.015821     -0.050141
O	      6.27276      4.13477      8.53007        -0.032928      0.112203     -0.141325
O	      8.42660      6.30993      8.35277        -0.140218     -0.010638     -0.035078
O	      2.27715      6.26245      6.39062        -0.126043     -0.025780     -0.055407
O	      4.17560      8.21853      6.23580        -0.001270      0.013685     -0.023781
O	      4.07186      6.42873      8.68273         0.045239     -0.090844      0.279361
O	      6.20982      8.47628      8.65506         0.115964     -0.018854     -0.117265
O	      6.18919      6.29405     10.57662        -0.353554     -0.605085      0.054878
O	      8.34117      8.49143     10.55569         0.611982      0.435612      0.056136
