# total energy = -224.01832006 eV
 
CRYSTAL
PRIMVEC
-0.013827 6.144430 6.458337 
6.282993 -0.033099 6.476859 
4.187188 4.107521 -0.020254 
PRIMCOORD
36 1
Li	      0.02638      6.11744      6.39333         0.068875      0.020442     -0.034668
Li	      8.35113      8.24163     12.81223        -0.013116     -0.014363     -0.003265
Li	      8.34532      4.05992      4.33501         0.015350     -0.003817     -0.040102
Li	      6.38263      8.13658     10.71526         0.018806      0.000537     -0.026900
Li	      8.29616      4.10021      8.54723        -0.013023     -0.009601     -0.076518
Li	      4.22699      4.05423      4.29609         0.068496      0.015071     -0.002390
Li	      6.20467      8.21829      6.45427         0.002669      0.005824      0.053790
Li	      8.32420      8.15428      8.73366        -0.021995      0.041109      0.036077
Li	      6.36790      6.12936      8.75036        -0.000941      0.002051      0.057461
Sc	      4.12468      6.05291      6.45844        -0.065417     -0.020109      0.150782
Ti	      6.16801      2.07546      8.54850        -0.235529      0.108165     -0.221833
Mn	      6.28482      4.08670      2.15784         0.092082     -0.082045      0.032901
Fe	      4.22311      8.23465      8.57544        -0.024880     -0.030179      0.091071
Fe	      2.13299      2.10202      4.28700        -0.016136     -0.135063      0.034680
Fe	      4.18514      1.98826      6.36989         0.105364      0.064276     -0.014966
Fe	     10.38968      8.27537     10.82185        -0.197686      0.305322      0.045528
Cu	      6.32059      4.06650      6.40011         0.039488     -0.046876     -0.026800
Cu	      2.03216      6.11220      4.32168        -0.139200      0.124043      0.088655
O	      6.33742      6.09224     10.77483         0.002398     -0.139870      0.051860
O	      2.06966      1.98072      2.21835        -0.058180      0.083370     -0.011254
O	      4.32574      4.14822      2.14272        -0.114043      0.116438      0.000648
O	      4.10440      2.08231      4.25602         0.080737      0.012994      0.027260
O	      6.28942      4.19014      4.06489        -0.039111     -0.013590      0.152882
O	      6.26283      2.05809      6.62146        -0.007824     -0.054227      0.182596
O	      8.27816      4.16450      6.40832         0.031857     -0.054991      0.036002
O	      1.98606      4.09311      4.34737         0.057044     -0.129876     -0.026187
O	      4.17023      6.14606      4.26873         0.165715      0.038899     -0.027558
O	      4.30992      4.00300      6.43364        -0.073281     -0.029206     -0.035887
O	      6.30648      6.09302      6.33600        -0.091194      0.105909     -0.094090
O	      6.29541      3.93060      8.80453        -0.045437     -0.208885      0.030837
O	      8.49232      6.08789      8.45587         0.213478      0.019558     -0.054659
O	      2.11433      6.10012      6.71116        -0.017050      0.021827     -0.118182
O	      4.16829      8.16094      6.53304        -0.019945     -0.029444     -0.145896
O	      4.05518      6.20618      8.57745         0.019554     -0.082438     -0.026950
O	      6.18579      8.31281      8.65510         0.084418     -0.014497     -0.052142
O	      8.43891      8.04849     10.80633         0.127657      0.013241     -0.032785
