# total energy = -223.83191300 eV
 
CRYSTAL
PRIMVEC
0.025231 6.346521 6.263771 
6.221207 0.015635 6.273067 
4.163408 4.252873 -0.005247 
PRIMCOORD
36 1
Li	      0.03168      0.03945      0.05397        -0.010297      0.030988     -0.025895
Li	      6.23587     10.42534      8.28527        -0.031364      0.025132      0.000162
Li	      4.36334      8.53267      8.25823        -0.037028      0.058625     -0.026008
Li	      6.26997      8.44989     10.33788        -0.036966      0.034166      0.020321
Li	      6.26180      6.35550      4.29589         0.015470      0.000730      0.077479
Li	      8.20421      6.43885      6.32749        -0.090226      0.053219     -0.003353
Li	      6.23234      4.27678      6.31859        -0.027527      0.009344     -0.000731
Li	      6.27263      8.38229      6.47631         0.005344     -0.047729     -0.058350
Li	      6.26058      6.54052      8.27833        -0.013273      0.011604      0.014178
Sc	      4.26263      4.17062      4.20623         0.069897     -0.108805     -0.018252
Ti	      4.06330      0.18313      4.09776        -0.170332      0.322126     -0.106269
Mn	      8.24963      2.13974      6.27900        -0.001142      0.001005      0.037948
Fe	      8.31064      4.27445      8.25352        -0.043208     -0.010099     -0.037654
Fe	      0.04157      4.22361      4.17326         0.020713     -0.060797      0.018073
Fe	      8.21758      6.37524     10.44659         0.021325      0.043645      0.014601
Fe	      4.30747      6.35286      6.37496        -0.190357     -0.030591      0.064390
Ni	      6.23743      2.10921      8.29350         0.046407     -0.048123      0.031300
Ni	      8.23293      8.47392      8.28800         0.178493     -0.013472      0.015552
O	      6.28256      8.50046      8.37816        -0.112561     -0.023250      0.030203
O	      2.07387      2.23238      1.90059         0.108494     -0.038941     -0.089133
O	      4.06629      4.27054      2.13861         0.078440     -0.080921     -0.039389
O	      4.15591      2.03488      4.23193        -0.005223     -0.247668     -0.034881
O	      6.34189      4.30464      4.16022         0.205406     -0.014227     -0.005612
O	      6.38531      2.12614      6.26524         0.086374      0.007451     -0.138341
O	      8.30807      4.12244      6.20173         0.010221     -0.079289     -0.056869
O	      2.06676      4.31286      4.11204         0.018193     -0.047683     -0.028658
O	      4.09939      6.35780      4.18924         0.007996      0.027791      0.086514
O	      4.16035      4.33311      6.24503        -0.026608     -0.044973     -0.071624
O	      6.15776      6.38747      6.26916         0.188637     -0.010992      0.040337
O	      6.25957      4.17578      8.45822         0.014185      0.065422     -0.047097
O	      8.33119      6.33811      8.41626        -0.102260     -0.109301      0.008114
O	      2.13867      6.52755      6.18363         0.027992      0.084812      0.055992
O	      4.06558      8.38718      6.18559        -0.090755      0.061047      0.033363
O	      4.17481      6.31583      8.46510        -0.000961      0.133448      0.170719
O	      6.20157      6.25059     10.47672        -0.083425      0.050967     -0.007544
O	      8.35499      8.49074     10.51685        -0.030073     -0.004664      0.076416
