# total energy = -227.64290793 eV
 
CRYSTAL
PRIMVEC
0.017070 6.292653 6.397000 
6.196150 0.013962 6.400401 
4.137144 4.203925 0.002638 
PRIMCOORD
36 1
Li	     10.23778      4.15624      6.39888        -0.023873      0.056935     -0.016035
Li	      4.16958      8.42706      8.41841        -0.042752     -0.017528     -0.020690
Li	      4.21674      6.27864     10.70870         0.006710     -0.048985      0.003999
Li	      8.25708      4.26575      8.46723         0.014508     -0.024127     -0.043891
Li	      4.18350      2.07974      6.40685         0.025304     -0.025501     -0.022564
Li	     10.29454      8.47426     10.75833        -0.044552      0.009601      0.009440
Li	      6.09077      8.41118      6.39052        -0.031149     -0.026226      0.008885
Li	      4.16249      6.36383      6.40415         0.012711      0.032234      0.011179
Li	      8.28485      8.38203      8.54915        -0.026735      0.012028      0.059304
Sc	      2.16242      2.17988      4.31667         0.012875     -0.190094     -0.046463
Ti	      2.19801      6.13507      8.39777         0.236899     -0.186620      0.005080
Mn	      4.15759      4.20691      4.29082         0.449780     -0.124795     -0.003682
Fe	      2.20810      8.46528      6.39047        -0.227618     -0.009319      0.079156
Fe	     10.28638      6.31675      8.52714         0.050850      0.168328     -0.045271
Fe	      6.21210      4.19591      6.46016         0.206542     -0.086804     -0.060346
Fe	      2.03611      6.26095      4.27914        -0.331627      0.350799      0.083273
Fe	      6.16043      6.31521      8.48925        -0.020463      0.081577      0.085597
Cu	      6.15913      2.06116      4.30578         0.040058     -0.127807      0.021616
O	      2.02274      1.99327      2.17895         0.038321      0.011073     -0.002573
O	      4.26040      4.26853      2.28688        -0.037622     -0.073125      0.043251
O	      4.20271      2.21262      4.25117        -0.548947     -0.641548     -0.005261
O	      6.18729      4.20506      4.20447         0.678026      0.514900     -0.021620
O	      6.23847      2.14877      6.58190         0.010634      0.022173      0.086858
O	      8.20231      4.15656      6.40249        -0.053797      0.043151     -0.037760
O	      2.15270      4.24631      4.29922        -0.720345     -0.033675      0.007604
O	      4.11326      6.25882      4.19516        -0.005285      0.667839      0.059177
O	      4.26520      4.21306      6.17749        -0.175877      0.037390      0.035588
O	      6.23033      6.25321      6.43906        -0.005831     -0.023347     -0.053689
O	      6.16478      4.23653      8.47489        -0.007352     -0.048467     -0.029688
O	      8.25145      6.31155      8.64158         0.002400      0.026542     -0.000641
O	      2.05775      6.33498      6.49960        -0.003290     -0.013912      0.041844
O	      4.06962      8.42696      6.38183         0.194232     -0.020978     -0.018178
O	      4.09402      6.28600      8.52232        -0.203732     -0.044577     -0.012909
O	      6.23352      8.45779      8.40445         0.000836      0.193581     -0.164980
O	      6.22087      6.33415     10.50121         0.128674     -0.381935      0.059676
O	      8.14333      8.27830     10.79732         0.401487     -0.078779     -0.095286
