# total energy = -102.70988589 eV
 
CRYSTAL
PRIMVEC
0.000337 2.101572 2.102557 
6.181022 0.040247 -2.142236 
-2.042410 6.441852 -4.342359 
PRIMCOORD
16 1
Li	      6.05361      2.33871     -0.23517         0.007141      0.008688     -0.010473
Li	      2.06215      2.13444     -0.03268         0.001518      0.000325     -0.000027
Li	      4.25201      1.97200     -1.97068        -0.006470     -0.010110      0.011212
Li	      4.13134      4.32597     -4.32492        -0.000044      0.001509     -0.000220
Ti	      2.26059      4.27898     -2.16407         0.576491     -0.109336      0.092724
Ti	     -0.17848      6.43501     -2.23975        -0.573042      0.112321     -0.102627
Ni	     -0.06765      4.16890      0.04595        -0.028451      0.040361     -0.065471
Ni	      2.14970      6.54375     -4.45163         0.028056     -0.043185      0.070209
O	      4.05689      4.34533     -2.23183        -0.610360     -0.013811     -0.006273
O	      4.07161      2.06652      0.03062        -0.004238      0.131611     -0.132773
O	      2.03021      6.33037     -2.12451        -0.027151     -0.085870      0.084271
O	      2.02961      2.33703     -2.33010         0.100925      0.148920     -0.152530
O	      4.20630      6.40816     -4.31575         0.606514      0.013847      0.010643
O	      0.05262      6.27474     -4.17715        -0.103812     -0.152877      0.153687
O	      0.05220      4.38265     -2.28069         0.028236      0.083760     -0.080543
O	      0.05272      2.20402     -0.09378         0.004688     -0.126154      0.128191
