# total energy = -227.52448747 eV
 
CRYSTAL
PRIMVEC
-0.002918 6.372374 6.167632 
6.350185 -0.004115 6.168698 
4.223695 4.239265 0.007220 
PRIMCOORD
36 1
Li	      4.26326      6.30416     10.24085        -0.001524      0.006803     -0.016744
Li	      6.42631      8.46035     10.21339         0.057281     -0.002778      0.042366
Li	      2.10009      4.29094      2.15814         0.001536      0.026922     -0.085714
Li	      2.08721      2.23296      4.09310        -0.010306     -0.007828      0.007772
Li	      4.07704      4.27594      4.09096        -0.098117      0.011746      0.013341
Li	      8.46046      6.29830     10.16218        -0.009757     -0.009914     -0.020817
Li	      2.10359      4.26915      6.09330        -0.012908      0.024031      0.029917
Li	      8.44002      8.44632      8.32431        -0.018321     -0.020423     -0.019772
Li	      6.36475      6.42037      8.32016         0.001278      0.072506     -0.048322
Sc	      6.36032      6.37159     12.25245         0.046913      0.002690     -0.054608
Ti	      8.30144      6.45863      6.17638        -0.141416      0.038948      0.100523
Mn	      8.47070      8.49400     12.29680         0.028259     -0.015350     -0.042723
Fe	      6.36118      4.18414      2.24199         0.067960     -0.060972     -0.046248
Fe	      4.29691      2.10303      2.25560        -0.097623      0.016391     -0.140178
Fe	      6.34922      4.23952      6.11702         0.010219      0.000998      0.045831
Fe	      6.46752      4.26903     10.11248        -0.200194     -0.007081      0.050837
Fe	      4.17310      6.32846      6.11933         0.141695     -0.098609      0.041144
Ni	      4.19924      6.34484      2.13577         0.068394     -0.041343      0.043217
O	      2.14039      2.03993      1.94116         0.026240      0.043400      0.030457
O	      4.30200      4.19519      2.06573        -0.050264     -0.025983      0.036293
O	      4.20671      2.12594      4.19350         0.001224      0.022198      0.210902
O	      6.38293      4.24622      4.17348         0.014046     -0.006836     -0.023194
O	      6.32129      2.13409      6.17111         0.022196     -0.063259     -0.105299
O	      8.44640      4.33290      6.17529         0.042182      0.059792      0.006244
O	      2.00007      4.24547      4.10119         0.210261      0.001026      0.043781
O	      4.22455      6.42640      4.19791        -0.007064     -0.055485     -0.073663
O	      4.28011      4.20582      6.14227        -0.064093     -0.069893      0.031532
O	      6.39216      6.29016      6.20598         0.081185      0.105679     -0.011918
O	      6.33044      4.14415      8.14414         0.007779      0.080823     -0.014446
O	      8.50920      6.37946      8.04184        -0.100219     -0.002032     -0.187606
O	      2.14533      6.38747      6.23775        -0.095017     -0.037276      0.005219
O	      4.18733      8.46349      6.22142        -0.034365      0.041673     -0.003916
O	      4.16771      6.44863      8.13318         0.055525     -0.053801      0.162565
O	      6.24422      8.57514      8.26186         0.103510     -0.067787     -0.047816
O	      6.36654      6.26825     10.27774        -0.030015      0.091820      0.038535
O	      8.56301      8.48363     10.42685        -0.016482     -0.000797      0.002508
