# total energy = -231.28994684 eV
 
CRYSTAL
PRIMVEC
0.018373 6.337524 6.397957 
6.320112 0.036256 6.380179 
4.229139 4.228775 0.008462 
PRIMCOORD
36 1
Li	      6.34821      6.37121     12.65685        -0.009926      0.050748     -0.069585
Li	      4.31481      8.39351      8.63664         0.052741     -0.140222      0.099694
Li	      4.33225      6.47819     10.57865         0.042150      0.069437      0.031944
Li	      6.17855      2.01901      4.23691        -0.171763     -0.132061      0.102178
Li	      4.25614      4.16990      4.29353         0.010468     -0.019639      0.064146
Li	      4.24078      2.13877      6.26049         0.028996      0.015859     -0.061480
Li	      8.38365      6.38407     10.65078        -0.014249     -0.008287     -0.019928
Li	      4.25851      6.34211      6.39985         0.051977     -0.028853     -0.028221
Li	      6.26886      6.43129      8.61436        -0.101184      0.055186      0.068083
Sc	      2.17122      8.36159      6.30535        -0.291417      0.276563     -0.060338
Ti	      8.54992      4.38247      8.49482         0.325521      0.502986     -0.393149
Mn	      6.35035      8.44837      6.42049         0.000157     -0.095168     -0.294112
Fe	      6.40275     10.49945      8.58080        -0.002970      0.243608      0.162217
Fe	      4.23578      6.35668      2.17560         0.036935      0.129454      0.129494
Fe	      2.25840      2.09367      4.29990        -0.496584      0.046046      0.049957
Fe	      6.23391      4.28484      6.31268         0.134355     -0.093003     -0.088926
Fe	      6.32827      4.40899     10.68572         0.146981     -0.461084     -0.171513
Fe	      8.39837      8.53451      8.58253         0.249624     -0.081338     -0.066139
O	      2.09259      2.12304      2.12477        -0.094647      0.153998      0.006049
O	      4.14793      4.29783      2.12547        -0.376243      0.077253      0.006857
O	      4.12180      2.14052      4.25270         0.432565      0.050208     -0.153595
O	      6.28985      4.31733      4.28410        -0.011415     -0.191447     -0.361659
O	      6.35914      2.25266      6.47543         0.071739     -0.008335      0.145683
O	      8.34273      4.21383      6.56932         0.028508     -0.032928      0.577193
O	      2.08347      4.18838      4.08218        -0.059376      0.005979     -0.214989
O	      4.32747      6.44227      4.13577         0.080462      0.098071     -0.289475
O	      4.27186      4.22819      6.51902         0.162166     -0.000821      0.294815
O	      6.31890      6.28834      6.29787         0.037164     -0.257384      0.126046
O	      6.33880      4.24671      8.48870         0.144442     -0.135877      0.073388
O	      8.49483      6.30573      8.52962         0.162392     -0.510719      0.039148
O	      2.09550      6.35971      6.54775        -0.047495      0.083396      0.238609
O	      4.22471      8.43822      6.28606        -0.241631      0.040365      0.228836
O	      4.14074      6.27111      8.56042        -0.094511     -0.012413      0.014565
O	      6.41117      8.52220      8.58524        -0.094672     -0.029433      0.200221
O	      6.34370      6.27687     10.65455         0.059279      0.369234     -0.101190
O	      8.54362      8.43128     10.62569        -0.150539     -0.029381     -0.284825
