# total energy = -210.89465490 eV
 
CRYSTAL
PRIMVEC
0.019753 6.225679 6.425332 
6.137586 -0.019375 6.465906 
4.060154 4.145365 0.018210 
PRIMCOORD
36 1
Li	      8.17870      8.30099     12.85828         0.105778     -0.009873     -0.165443
Li	      2.06699      0.09151      2.18965         0.023074     -0.058330     -0.077127
Li	      6.22741      8.23009     10.72345         0.046851     -0.022525     -0.011688
Li	      8.16299      4.15031      8.63117         0.079515      0.060781     -0.026612
Li	      2.02581      2.08088      4.16387        -0.011139     -0.005552      0.112039
Li	      8.24108      6.11938      6.62044        -0.043390      0.026896      0.057588
Li	      6.06701      4.17423     10.63623        -0.018103      0.035108      0.139726
Li	      8.14706      6.27214     10.66428        -0.045098      0.105701      0.063681
Li	      8.18427      8.22023      8.82858        -0.091954      0.067472      0.064949
Sc	      6.24824      4.03232      6.50125         0.040454      0.151819     -0.293957
Ti	      4.09306      4.03656      4.19904         0.011671     -0.134430      0.067012
Mn	      6.11563      8.26420      6.45072        -0.078400     -0.031903      0.184000
Mn	      4.04437      6.22196      6.42328        -0.103409      0.238429      0.118744
Cu	      6.11620      0.06633      6.39963         0.216179     -0.333917     -0.311019
Cu	      4.00217      2.07089      2.17740         0.080003     -0.006863     -0.099279
Cu	      6.19078      6.18860      8.67349         0.014785      0.007030     -0.252030
Ni	      4.10795      6.17628     10.68590        -0.117305      0.022329      0.036754
Ni	      4.08292      6.29093      2.24974        -0.089229      0.210502     -0.313742
O	      8.13306      6.22649      8.60958         0.120643     -0.025458      0.184605
O	      6.08857      6.23400     10.63062         0.228403     -0.054973      0.119085
O	      8.16300      8.37273     10.77468        -0.030052     -0.210963     -0.041018
O	      2.07848      2.09726      2.12923         0.051955      0.076526      0.180459
O	      4.05065      4.30863      2.34430         0.010629     -0.250382      0.251875
O	      4.07872      2.11503      4.20604        -0.029003      0.274472      0.038620
O	      6.03530      4.12251      4.39107        -0.310480      0.016156     -0.008271
O	      6.14420      2.01456      6.58929         0.041753      0.469862      0.355498
O	      8.24842      4.17131      6.34735        -0.138558     -0.000662      0.226321
O	      2.13753      4.11136      4.53748         0.162638     -0.011576     -0.131306
O	      4.05968      6.13597      4.47587         0.026775     -0.119017     -0.408848
O	      4.01659      4.23331      6.36385         0.012674     -0.504973     -0.108253
O	      6.01054      6.29033      6.46194         0.340010     -0.008248      0.058121
O	      6.18249      4.16812      8.55294         0.010544     -0.226793      0.213319
O	      2.06303      6.04370      6.49798        -0.344426     -0.046560     -0.021820
O	      4.18933      8.26085      6.47985        -0.013722      0.067291      0.047317
O	      4.15698      6.13801      8.41046        -0.164042      0.097212     -0.100857
O	      6.02076      8.18660      8.41383         0.003981      0.135410     -0.148445
