# total energy = -212.15934774 eV
 
CRYSTAL
PRIMVEC
0.019052 6.415073 6.147090 
6.396648 -0.002009 6.168134 
4.245925 4.272093 0.017473 
PRIMCOORD
36 1
Li	     10.54047      4.28849      6.20038        -0.090437      0.061642     -0.004683
Li	      4.21404      0.12805      4.10662        -0.000571     -0.024531      0.041589
Li	      6.22396      2.20663      4.19285         0.016606      0.022086      0.034102
Li	      2.35287      2.05350      4.11339        -0.058250     -0.057806      0.019477
Li	      4.33777      4.06393      4.10068         0.006882     -0.008583      0.059618
Li	      4.21967      2.21814      6.05764         0.052447      0.011675      0.079354
Li	      6.50324      4.14870      6.12263         0.009821     -0.037699     -0.014413
Li	      4.29199      4.29363      8.18518        -0.014330     -0.001805     -0.011884
Li	      6.43988      6.36246      8.21505         0.052411     -0.046774     -0.088849
Sc	      4.37385      6.37419      6.12675         0.097928     -0.148202      0.016672
Ti	      8.37757      6.46613     10.17268        -0.152394      0.190297     -0.339103
Mn	      6.35458      4.23686      2.16316        -0.023452      0.071974      0.088209
Mn	      2.20723      4.27152      6.16475         0.140891      0.010011     -0.122643
Cu	      8.37897      2.21407      6.18851        -0.011906     -0.082972     -0.012467
Cu	      4.27440      2.12248      2.14518        -0.054273      0.054308     -0.033753
Cu	      6.40380      2.15423      8.20034        -0.079261     -0.124084     -0.160501
Cu	      8.54356      4.30720      8.18903        -0.019761      0.073269     -0.159354
Cu	      6.34893      4.31711     10.19148        -0.062246      0.106850      0.188402
O	      6.55089      4.20844      8.19709         0.135873      0.123449     -0.066547
O	      8.56968      6.51059      8.32096        -0.208376      0.051380      0.455900
O	      6.50369      6.29267     10.23210         0.270037      0.062544     -0.020269
O	      8.48179      8.39967     10.44348         0.015526     -0.284235     -0.231558
O	      2.07108      1.92175      1.97906         0.247672     -0.142690      0.115902
O	      4.33415      4.31278      2.09068        -0.008729     -0.153448      0.015210
O	      4.26701      2.10560      4.02413         0.081342     -0.006408     -0.030183
O	      6.35931      4.27365      3.98606        -0.018742     -0.016409     -0.067645
O	      6.42483      2.11451      6.25327        -0.206965     -0.126179     -0.012051
O	      8.53868      4.14066      6.26898         0.094687      0.277992      0.145839
O	      2.17482      4.43152      4.18948        -0.038570      0.085951      0.068860
O	      4.13792      6.59738      4.07125        -0.090794      0.003871      0.072675
O	      4.11267      4.32145      6.13187         0.061594      0.077237      0.043367
O	      6.39879      6.62731      6.19762        -0.055769      0.016414     -0.014323
O	      2.18371      6.28147      6.18107        -0.038476     -0.111228     -0.081787
O	      4.44150      8.52776      6.28444         0.062192      0.050348     -0.076429
O	      4.06704      6.39950      8.19989         0.060739      0.058728      0.038390
O	      6.42288      8.70731      8.12024        -0.173350     -0.036970      0.064877
