# total energy = -232.27256502 eV
 
CRYSTAL
PRIMVEC
0.021203 6.258714 6.493158 
6.240146 0.065618 6.447526 
4.171911 4.154596 0.033380 
PRIMCOORD
36 1
Li	      2.16006      8.26928      6.51314        -0.036221     -0.058082      0.011662
Li	      6.24560      4.23522      2.26737        -0.002521      0.008892     -0.020897
Li	      4.17061      6.23882      2.38719        -0.008339     -0.006301     -0.108807
Li	      4.09674      4.29609      4.38580         0.045780     -0.125852      0.044462
Li	      8.24830      6.36802      6.51300         0.057616     -0.020004      0.001379
Li	      0.05771      4.06261      4.22306        -0.012926      0.138549     -0.050888
Li	      2.17058      4.11905      6.38747         0.007507      0.098966      0.032608
Li	      4.14784      6.23224      6.32973        -0.014789      0.035203      0.076930
Li	      6.28716      6.27730      8.58226        -0.040081      0.007249     -0.023008
Sc	      6.19779      4.24004      6.52608        -0.036173     -0.137354      0.072848
Ti	      4.22067      8.37819      8.60941         0.031650     -0.083507     -0.104969
Mn	      8.36440     10.41998     10.86416         0.109563      0.123898     -0.011143
V	      0.09000      6.29522      6.46135        -0.132906      0.080945     -0.079763
Cr	      2.05088      2.19733      4.34691         0.616844     -0.223585     -0.050705
Cr	      8.31889      8.34528      8.65775        -0.022129      0.123491      0.045931
Co	      2.13131      6.19397      4.33082        -0.034878      0.271443      0.019078
Cu	      6.20955      2.13437      4.28139        -0.046930     -0.101374      0.080067
Ni	      8.31270      4.28630      8.65032        -0.047210      0.036423     -0.168877
O	      2.23854      2.15691      2.26036         0.025140     -0.147638      0.135254
O	      4.17819      4.11128      1.99456         0.118353     -0.055168      0.256373
O	      4.19143      2.16422      4.17552        -0.193726      0.414553     -0.004881
O	      6.40586      4.33855      4.37992        -0.121889      0.318566     -0.007214
O	      6.23230      1.98090      6.34024        -0.041766      0.223228      0.061160
O	      8.38964      4.16548      6.38801        -0.158399     -0.002922      0.106302
O	      2.12323      4.21227      4.24936         0.040530      0.678671      0.024380
O	      4.28057      6.25039      4.35210        -1.335718      0.069756     -0.038802
O	      4.17365      4.19158      6.64430         0.039136      0.049808     -0.090748
O	      6.26343      6.26296      6.37553         0.003332      0.038026     -0.070070
O	      6.20129      4.21601      8.56667        -0.079069     -0.035281      0.066047
O	      8.31715      6.34627      8.78220         0.042493     -0.097171      0.569399
O	      1.96477      6.26265      6.31374         0.410532     -0.087874     -0.507071
O	      4.19833      8.45473      6.71525        -0.060889     -0.208814      0.176559
O	      4.19548      6.31455      8.82397        -0.036261      0.043976     -0.019310
O	      6.22942      8.38891      8.78134        -0.030465      0.001353     -0.137100
O	      6.11683      6.11758     10.97647         0.852740     -0.269933     -0.221774
O	      8.24466      8.30093     10.71119         0.092068     -1.102137     -0.064416
