# total energy = -231.55867438 eV
 
CRYSTAL
PRIMVEC
-0.035352 6.237964 6.274811 
6.262792 -0.035253 6.274162 
4.195609 4.178004 -0.044062 
PRIMCOORD
36 1
Li	      6.31249      4.15120      2.13537        -0.001188     -0.038982     -0.023770
Li	      4.18740      6.36396      2.20582        -0.032770      0.026342     -0.049099
Li	      1.93003      4.15336      2.25326        -0.041543      0.024407      0.035763
Li	      4.14215      4.26100      4.06225        -0.014744     -0.066398     -0.094714
Li	      6.19321      4.21131      6.33705        -0.008794      0.040203      0.043361
Li	      0.03187      4.05325      4.05494         0.055658     -0.068731     -0.006865
Li	      2.24402      6.13475      4.08635         0.089976     -0.065115     -0.015340
Li	      4.23168      6.16998      6.07398        -0.016288     -0.005321     -0.054294
Li	      6.19342      6.14966      8.43896         0.020367      0.018649      0.055379
Sc	      2.07426      2.10370      0.03235         0.059951     -0.039100     -0.018071
Ti	      4.23337      4.16733      0.02004         0.144616     -0.177617      0.298715
Mn	      2.04775      4.14153      6.19471         0.026687      0.027882     -0.104785
V	      8.34953      6.25270      6.37296        -0.022511      0.063159      0.100273
Cr	      6.23346      6.19066      4.08750        -0.096364      0.245942      0.023532
Cr	      4.21862      4.20243      8.38370        -0.019276     -0.010138     -0.041496
Co	      4.17462      0.00013      4.19954        -0.065329      0.002201     -0.060729
Cu	      4.20288      8.26719      8.33745         0.029525     -0.034395     -0.094188
Cu	      6.24078      2.13728      4.08523        -0.110052      0.073786      0.010377
O	      2.18509      2.07375      2.09538        -0.043134     -0.057494      0.154332
O	      4.17224      4.03789      1.91153         0.085192      0.049686     -0.426451
O	      4.17574      1.95706      4.39776        -0.084208     -0.143138      0.221462
O	      6.42237      4.14545      4.17669         0.120343      0.062449     -0.036093
O	      6.21113      1.94748      6.40523        -0.040852     -0.155821      0.109180
O	      8.41946      4.18817      6.16447         0.074616      0.053154     -0.031785
O	      2.10437      4.04663      4.27220         0.028347     -0.062474     -0.119994
O	      4.28807      6.17889      4.14420         0.161653     -0.018869     -0.109673
O	      4.16349      4.03101      6.34416         0.053894      0.008905      0.039275
O	      6.38395      6.26385      6.14488         0.002288     -0.044544     -0.101780
O	      6.14650      4.16455      8.35730        -0.093766      0.026199      0.113964
O	      8.31765      6.28234      8.19935         0.008847     -0.001969     -0.065831
O	      1.94730      6.28194      6.15506        -0.293903     -0.019992      0.007515
O	      4.08473      8.44981      6.05576        -0.009252      0.219095     -0.138601
O	      4.14516      6.23166      8.54136         0.006989      0.032005      0.119009
O	      6.25660      8.33018      8.07416         0.074524      0.031187      0.064528
O	      6.09171      6.39513     10.54050        -0.158420     -0.135159      0.106746
O	      8.23791      8.45447     10.35279         0.108922      0.140007      0.090144
