# total energy = -232.85092025 eV
 
CRYSTAL
PRIMVEC
0.026832 6.283753 6.383835 
6.270862 0.020690 6.389807 
4.190885 4.203458 0.003535 
PRIMCOORD
36 1
Li	      8.34578      8.43522     12.57414        -0.004974      0.057459     -0.123278
Li	      6.35402     10.41476      8.62585        -0.010805      0.036809      0.001279
Li	      4.34829      8.29706      8.65640         0.028473     -0.047093      0.043903
Li	      4.18678      6.26394     10.53256        -0.032894     -0.018151      0.051982
Li	      6.32094      8.43480     10.49823        -0.032326      0.027079      0.018460
Li	      8.33830      4.26938      8.52817        -0.031156      0.031199     -0.015196
Li	      4.14499      2.11002      6.32302        -0.010991     -0.025623     -0.033879
Li	      6.20497      4.26805     10.56669         0.041919     -0.001405     -0.003768
Li	      6.25293      6.38768      8.61680         0.020164     -0.010478      0.005968
Sc	      4.16890      6.36119      6.50085         0.065773      0.035812     -0.009578
Ti	     10.34466     10.45757     12.63826        -0.377568     -0.094771     -0.075193
Mn	      4.20758      4.12789      4.23484         0.097473     -0.019604      0.055222
V	      0.09266      2.05589      2.00537         0.055026     -0.067056     -0.077718
Cr	      6.31505      8.39417      6.44598        -0.009198     -0.082523      0.030255
Cr	      8.37693      8.39667      8.60556         0.009306      0.017835     -0.112409
Co	      6.40292      4.25643      6.34953        -0.388064     -0.453010      0.103523
Ni	      2.14163      2.09003      4.25568        -0.004145     -0.013746      0.029062
Ni	      8.36919      6.35218     10.64412        -0.039805     -0.098950     -0.011959
O	      1.86385      2.13088      2.20321        -0.134068      0.000529     -0.088402
O	      4.16540      4.39729      2.02018        -0.000336     -0.023725      0.029733
O	      4.16287      2.24089      4.21980         0.163176      0.019712      0.004369
O	      6.16232      4.21259      4.33592         0.240930      0.099178      0.404063
O	      6.30338      2.02774      6.54607        -0.012818      0.156505     -0.027410
O	      8.47465      4.20534      6.39014         0.205691      0.021270     -0.117658
O	      2.21912      4.19923      4.38259        -0.002285      0.030430     -0.011564
O	      4.21305      6.16541      4.18378        -0.044316     -0.008531      0.052128
O	      4.15639      4.24407      6.50154         0.077887     -0.038671      0.047303
O	      6.26218      6.35760      6.36715         0.016302      0.023436      0.033328
O	      6.23008      4.01232      8.46234         0.172335      0.313746     -0.286947
O	      8.56530      6.36629      8.59994         0.101910     -0.004356     -0.168196
O	      2.05373      6.23091      6.36632        -0.020155     -0.016822      0.063934
O	      4.27002      8.47426      6.44445        -0.002069      0.105741     -0.052544
O	      4.19958      6.23539      8.49171         0.050046     -0.042789      0.041946
O	      6.38549      8.37568      8.42847        -0.036491      0.019942      0.081623
O	      6.31103      6.31224     10.80007        -0.107411     -0.008821      0.172626
O	      8.40626      8.37208     10.57278        -0.044539      0.079441     -0.055008
