# total energy = -234.10941305 eV
 
CRYSTAL
PRIMVEC
0.018117 6.294768 6.375450 
6.214275 0.002570 6.390244 
4.145347 4.209311 -0.000894 
PRIMCOORD
36 1
Li	      8.29191      2.22128      6.44423        -0.011149      0.167936      0.015314
Li	      6.14219      4.31322      2.18232        -0.024138     -0.011608      0.042955
Li	      3.99256      2.21740      2.22651        -0.014299      0.054913      0.014919
Li	      8.22245      4.30473      4.33607         0.052200      0.010423      0.064868
Li	      2.19293      4.11380      2.06356        -0.003069     -0.021432     -0.070668
Li	      4.08509      4.17560      4.10904        -0.003805     -0.031007     -0.065738
Li	      8.27305      6.19883      6.35621         0.066249     -0.071100     -0.019282
Li	      6.39228      4.24660      6.32802         0.111748      0.007715      0.017613
Li	      2.06755      6.26200      4.26120        -0.050188      0.009009     -0.023772
Sc	      6.10370      2.26821      4.38479        -0.037610     -0.026780      0.224138
Ti	      6.24864      6.32984      8.49353        -0.033169      0.073827      0.065444
Mn	      4.02964      6.31664      6.33366        -0.108781      0.075983      0.052049
V	      4.18040      4.17541      8.46763         0.147276     -0.087207      0.147300
Cr	      0.06385      2.03500      2.09316        -0.061051     -0.017013     -0.274569
Cr	      6.23989      4.20783     10.63217        -0.039268      0.039393     -0.077726
Co	      4.07540      4.18485      0.09875         0.412794     -0.503741     -0.477836
Co	      2.11316      2.07099      4.23380         0.072542     -0.136655     -0.100978
Cu	      2.07011      4.18612      6.30321         0.142765     -0.109822      0.040864
O	      2.01719      2.08788      2.31325         0.039227     -0.071858     -0.099509
O	      4.15753      4.29330      2.07644        -0.030602      0.233344      0.282059
O	      4.07761      2.13544      4.27742        -0.077065      0.054495     -0.076898
O	      6.21065      4.27742      4.30934        -0.013890      0.091206      0.010649
O	      6.29861      2.06784      6.44022        -0.058731     -0.007673      0.177855
O	      8.46527      4.20281      6.37493        -0.229325      0.095447      0.152016
O	      2.00609      4.01859      4.25937        -0.028448     -0.002734     -0.074277
O	      4.25617      6.36424      4.14356        -0.055843      0.091038      0.219643
O	      4.22114      4.23198      6.66549        -0.049753     -0.026296     -0.106587
O	      6.25215      6.36928      6.45181        -0.162176      0.031646      0.072288
O	      6.20950      4.21855      8.56481         0.045035      0.082819      0.129276
O	      8.29395      6.38026      8.49148        -0.103137      0.013897      0.068037
O	      1.92455      6.10868      6.31447         0.195522      0.284462      0.127959
O	      4.05455      8.40359      6.21835        -0.224874      0.002221     -0.068318
O	      4.32983      6.21769      8.50821         0.006283     -0.023911     -0.149088
O	      6.30098      8.26891      8.60692         0.007250     -0.143257      0.067271
O	      6.27114      6.24957     10.47013         0.037412     -0.092522     -0.235686
O	      8.32626      8.40375     10.41623         0.084068     -0.035161     -0.071582
