# total energy = -233.70307097 eV
 
CRYSTAL
PRIMVEC
0.014627 6.283817 6.252202 
6.205183 0.012736 6.254165 
4.149162 4.202899 -0.003842 
PRIMCOORD
36 1
Li	     10.14955      4.22383      6.22753         0.066931     -0.069456      0.060204
Li	      8.34743      8.47108     12.44630         0.017795     -0.001497      0.117161
Li	      8.27959      4.15229      4.25101        -0.051847      0.088599     -0.073145
Li	      2.06694      4.18160      2.09089         0.019892     -0.013794     -0.139374
Li	      2.09063      2.30486      4.16900         0.023275     -0.030573      0.087673
Li	      4.00666      4.21417      4.24312         0.173199     -0.003102      0.073587
Li	      8.27622      6.22738      6.20405        -0.059326      0.088484     -0.044379
Li	      2.18372      4.20443      6.09263         0.040824     -0.018914      0.199565
Li	      8.31740      8.38215      8.33750        -0.015828      0.006854     -0.191875
Sc	      6.29919      4.24877      6.17336        -0.355521      0.118619     -0.022614
Ti	     10.30880      6.23696      8.31066        -0.110057     -0.163494     -0.044607
Mn	      2.11651      6.24634      8.28656         0.229876     -0.155667     -0.157923
V	      4.06746      2.12759      2.11389         0.073157     -0.061227     -0.343829
Cr	      6.27252      8.34510     10.47712        -0.385654      0.065776      0.070656
Cr	      6.26269      6.27247      8.35090        -0.065771      0.005176     -0.220750
Co	      2.10923      6.25314      4.19095        -0.246186     -0.250846      0.255063
Co	      4.15991      6.27073      6.24802         0.122118      0.198422      0.183421
Ni	      4.16063      8.40346      4.19535        -0.123330     -0.094238      0.219494
O	      2.03898      2.10220      2.12964        -0.190241     -0.053361      0.033748
O	      4.12406      4.24457      2.02215         0.066277      0.284492      0.070959
O	      4.18701      2.15328      3.96161         0.085285     -0.012967      0.300039
O	      6.24098      4.02872      4.14235         0.062371     -0.015147     -0.219356
O	      6.16931      2.11938      6.33203         0.061052     -0.030143     -0.006080
O	      8.25943      4.25304      6.19941         0.074342     -0.100828     -0.031237
O	      2.00259      4.32391      4.16131         0.164034      0.572844     -0.024248
O	      4.07300      6.33136      4.03276         0.027067     -0.055832     -0.298966
O	      4.15882      4.40073      6.25322         0.115081     -0.721835      0.017647
O	      6.14872      6.33024      6.34450         0.362267      0.033800     -0.043098
O	      6.19887      4.15575      8.34331         0.046393      0.031992     -0.001885
O	      8.34244      6.30058      8.42377         0.120463      0.030721     -0.485179
O	      2.25367      6.27890      6.12746        -0.461561      0.106652      0.407892
O	      4.15401      8.28130      6.46446         0.077624      0.413236     -0.022838
O	      4.25994      6.40706      8.40045        -0.105530     -0.035609      0.274226
O	      6.15907      8.28185      8.46520         0.047217      0.080168     -0.003438
O	      6.35132      6.30311     10.38500         0.032917      0.034843      0.038236
O	      8.26794      8.23215     10.44219         0.061395     -0.272146     -0.034750
