# total energy = -103.39807901 eV
 
CRYSTAL
PRIMVEC
-0.000039 2.103836 2.104400 
6.147792 4.194327 -6.299992 
-4.132499 2.118822 -2.119319 
PRIMCOORD
16 1
Li	     -4.10240      2.12119     -2.12025         0.022115      0.022490     -0.021609
Li	     -2.08394      4.21950     -2.11379         0.002599     -0.001875      0.000714
Li	     -0.05893      4.21106     -4.21159        -0.021429     -0.020954      0.021584
Li	     -0.01509      2.10904     -2.10761         0.000514     -0.002368      0.000121
Ti	     -1.96073      2.14770     -0.04244         0.463619      0.136294     -0.137027
Ti	      1.93283      4.17099     -2.06590        -0.467595     -0.132219      0.132420
Ni	      1.96457      6.32291     -4.21986        -0.021505     -0.077954      0.081662
Ni	      4.15497      4.18914     -4.18937         0.020289      0.077901     -0.080261
O	     -0.08730      6.37742     -4.27476        -0.121132     -0.100993      0.106407
O	      0.11275      4.22450     -2.12030         0.397144      0.005592     -0.005551
O	      2.06667      4.15136     -4.15240        -0.082835     -0.056725      0.061233
O	     -0.14079      2.09447      0.01121        -0.398092     -0.005971      0.006569
O	      2.05446      2.21031     -2.20992        -0.001377      0.119737     -0.124960
O	      2.07432      6.25348     -6.25373         0.120558      0.103522     -0.105751
O	     -2.08322      2.00454     -2.00336         0.001645     -0.124183      0.126211
O	      4.05303      6.36101     -4.25686         0.085483      0.057707     -0.061761
