# total energy = -237.47525053 eV
 
CRYSTAL
PRIMVEC
0.056150 6.191772 6.296353 
6.394886 0.019506 6.332808 
4.262916 4.152106 0.013186 
PRIMCOORD
36 1
Li	      2.21156      8.23043      6.34744         0.015688      0.027477      0.054800
Li	      4.28730      8.30700      8.34859        -0.038220      0.027170     -0.002603
Li	      6.40598      2.07475      4.27974         0.036781      0.023928     -0.038131
Li	      0.15457      1.99436      2.11113         0.014854      0.025989      0.028025
Li	      2.17412      4.10606      2.16719         0.075661      0.005321     -0.010837
Li	      4.34302      2.07540      6.28034         0.004204     -0.050586      0.015567
Li	      2.27546      6.17118      4.28440         0.013193     -0.031219     -0.067654
Li	      2.08670      4.21091      6.25011        -0.022422     -0.000692      0.036598
Li	      4.22307      6.28396      6.25283         0.010391      0.026737      0.029592
Sc	      4.29738      4.12680      8.26999        -0.053609      0.110466      0.109222
Ti	      8.51770      4.21513      4.31875         0.032818      0.074364      0.022534
Mn	      0.03346      0.05773      0.07335         0.117388     -0.170039      0.277025
V	      6.47490      6.26537      8.29859        -0.040577     -0.046700      0.088121
Cr	      6.38700      6.23092      4.27560        -0.065258     -0.041639     -0.341004
Cr	      4.30835      8.28992      4.23177         0.131457     -0.127079     -0.059007
Co	      4.22911      4.12366      4.24536        -0.121513      0.220210     -0.054835
Co	      2.02678      0.08344      2.05009         0.176481     -0.510641      0.289543
Co	      6.41527      4.00673      6.33320         0.009266      0.030201      0.007377
O	      2.17103      1.93875      2.24461         0.026987      0.149208      0.036081
O	      4.34772      4.12379      2.27650        -0.367432     -0.018357     -0.556168
O	      4.16174      2.00457      4.24370         0.071018     -0.437858      0.063736
O	      6.53151      4.16532      4.18528         0.022138      0.006000     -0.327749
O	      6.40800      2.00523      6.36394        -0.044568      0.208045     -0.001999
O	      8.61226      4.16471      6.22719        -0.091822      0.031997     -0.212244
O	      2.06677      4.04962      4.20913        -0.085684      0.122919      0.073423
O	      4.37558      6.27037      4.24173        -0.097791      0.165683      0.093255
O	      4.35434      4.11758      6.23773         0.185285     -0.062217      0.284201
O	      6.38737      6.12643      6.38094         0.063566     -0.092854     -0.077747
O	      6.40765      4.23057      8.46462        -0.020258     -0.026127     -0.017221
O	      8.29669      6.22708      8.47596        -0.102543      0.020176     -0.087408
O	      2.06481      6.22432      6.39631        -0.052425      0.214711      0.202976
O	      4.29910      8.45740      6.20603        -0.040199     -0.033134     -0.028391
O	      4.42724      6.21878      8.45759         0.299302      0.019728      0.069264
O	      6.49047      8.25872      8.38439         0.011442      0.031654     -0.053525
O	      6.30407      6.20358     10.37703        -0.060539      0.094908      0.123263
O	      8.65785      8.42190     10.45652        -0.013060      0.012250      0.031919
