# total energy = -230.32586998 eV
 
CRYSTAL
PRIMVEC
0.026432 6.249856 6.366947 
6.224936 0.015724 6.378312 
4.137161 4.161194 0.023283 
PRIMCOORD
36 1
Li	      8.29864      8.34920     12.70325         0.006334     -0.041524     -0.039771
Li	      4.20619      8.31732      8.54998         0.001432      0.031837     -0.016696
Li	      6.19827      2.17870      8.53183        -0.021245     -0.037943     -0.030734
Li	      2.08560      2.14047      4.21203        -0.055282     -0.005366      0.022621
Li	      6.26486      4.11746      6.41743         0.017908     -0.049557      0.015609
Li	      8.34099      6.29051     10.56751        -0.017585      0.010534     -0.010443
Li	      6.23503      8.34227      6.50584        -0.034126     -0.037314      0.147621
Li	      8.27066      8.28202      8.60456         0.007237     -0.023380      0.005767
Li	      6.25650      6.31255      8.54064         0.004833      0.008155      0.020021
Sc	      2.07692      0.08721      2.14763        -0.046047      0.008720      0.011266
Ti	      4.33232      6.10095      6.36309         0.142356     -0.025112     -0.202557
Mn	      2.02915      4.12557      2.15361        -0.077130      0.046668     -0.165404
V	      4.20525     10.31510      6.35653         0.119900     -0.050116     -0.047626
Cr	      6.28081      8.35686     10.61464         0.222067     -0.174529     -0.086819
Cr	      8.25765      6.25801      6.44274        -0.046801      0.055767      0.152272
Cu	      6.21938      4.14920     10.52435        -0.020700     -0.050593     -0.101308
Ni	      4.17570      6.27261     10.56949         0.003006     -0.075249     -0.073903
Ni	      4.10453      4.14462      4.27593        -0.068984      0.089529     -0.107792
O	      2.06762      2.18258      2.12196        -0.029781      0.123924      0.014524
O	      4.05768      4.15059      2.01279        -0.112353     -0.002273      0.094553
O	      4.20888      2.09407      4.39229        -0.028785      0.091254     -0.027592
O	      6.22566      4.12679      4.27190        -0.131059      0.010737      0.010563
O	      6.13491      1.92217      6.31395         0.009839      0.047322     -0.006521
O	      8.34258      4.23061      6.48402        -0.017704      0.019281      0.025420
O	      2.06887      4.16812      4.02881         0.150872     -0.009493      0.123089
O	      4.12861      6.14771      4.48029         0.018911     -0.064502      0.245356
O	      4.17559      4.18038      6.40175         0.009464      0.095037      0.023509
O	      6.18909      6.27680      6.39413        -0.223122     -0.047458      0.006349
O	      6.36864      4.15162      8.57025         0.109659      0.003499     -0.135309
O	      8.29762      6.10863      8.41552        -0.017024     -0.115248     -0.044590
O	      2.03561      6.25073      6.41652         0.111914     -0.038100     -0.056643
O	      4.17583      8.44989      6.22980         0.019738      0.004093      0.261487
O	      4.14546      6.32250      8.32745         0.112651     -0.012941     -0.074622
O	      6.22276      8.42178      8.63746        -0.014321     -0.013792     -0.034616
O	      6.20622      6.36938     10.74370         0.140931      0.254754     -0.014588
O	      8.31266      8.42178     10.61066        -0.246999     -0.026621      0.097507
