# total energy = -228.80332215 eV
 
CRYSTAL
PRIMVEC
-0.011288 6.212294 6.417543 
6.284646 -0.050023 6.457249 
4.187292 4.165437 -0.031211 
PRIMCOORD
36 1
Li	      4.29967     10.29006      6.43573        -0.025329     -0.000140      0.132752
Li	      2.20756      8.18932      6.48030        -0.004399      0.026820      0.061609
Li	      4.30447      6.12493      2.20262        -0.062343      0.008525     -0.016523
Li	      2.09757      4.09114      2.26436        -0.076174      0.005826      0.028404
Li	      1.95583      2.16647      4.18226        -0.016568      0.094088     -0.031829
Li	      4.12890      4.25940      4.13670        -0.013626      0.006197     -0.007906
Li	      4.25080      8.23317      4.43314        -0.031718     -0.054569      0.027670
Li	      1.94590      4.17198      6.31631         0.092871      0.022238     -0.025629
Li	      4.08450      6.35634      6.22565        -0.024160     -0.019316     -0.108266
Sc	      4.13866      8.35134      8.42531         0.060526      0.001202      0.030672
Ti	      6.22242      4.12962      6.45042        -0.033583      0.084482      0.029123
Mn	      8.41038     10.29572     10.73081        -0.060211      0.103071      0.062016
V	      8.38603      6.17142      6.42109         0.106082     -0.023414      0.001440
Cr	      2.17646      6.08689      4.40112         0.205741     -0.057455     -0.017311
Cr	      4.18310      4.11902      8.58329         0.080776     -0.008693     -0.113123
Cu	      2.03278      0.03582      2.11287         0.078649     -0.013589     -0.029023
Cu	      6.32172      8.26198     10.73731        -0.029933      0.017100      0.068224
Ni	      6.31250      6.21214      8.57088        -0.082233      0.038467     -0.039462
O	      2.11773      1.99364      2.16338         0.001536      0.059939      0.008245
O	      4.26132      4.13039      2.13932        -0.123040      0.007523     -0.032656
O	      4.12880      1.86518      4.44883         0.100493     -0.036829     -0.148154
O	      6.21768      3.98897      4.53094        -0.064062     -0.002529      0.116438
O	      6.05664      2.09069      6.52120         0.081208      0.042087      0.037362
O	      8.27883      4.16471      6.32786        -0.047290     -0.090641     -0.071812
O	      2.06579      4.25822      4.26420        -0.037738      0.104306      0.011379
O	      3.97862      6.25984      4.20460         0.005018      0.000565      0.019380
O	      4.25314      4.02574      6.53252         0.030199      0.061630      0.025533
O	      6.41220      6.09283      6.43065        -0.132189     -0.064899     -0.080164
O	      6.19945      4.17137      8.40388         0.062768     -0.107837     -0.107237
O	      8.31949      6.28189      8.41404         0.134471     -0.018766      0.211974
O	      2.08668      6.20756      6.20205        -0.014286      0.025454     -0.157969
O	      4.17613      8.27486      6.47117         0.031845     -0.015329      0.005471
O	      4.19341      6.15901      8.76526         0.021921     -0.029751      0.007006
O	      6.35670      8.34421      8.54603        -0.113181      0.005740     -0.244127
O	      6.49399      6.34298     10.59651        -0.130527     -0.101477      0.110254
O	      8.45302      8.35730     10.55959         0.028484     -0.070027      0.236236
