# total energy = -228.36325367 eV
 
CRYSTAL
PRIMVEC
-0.036542 6.462862 6.174552 
6.308105 -0.035652 6.174236 
4.186804 4.289642 -0.005475 
PRIMCOORD
36 1
Li	     10.39269      4.34696      6.29695        -0.068887      0.119649      0.068508
Li	      8.32084      2.24678      6.30299        -0.075636      0.101087      0.042322
Li	      4.09198      2.28367      2.03946        -0.083781      0.140248      0.018920
Li	      0.02324      2.07887      2.01178         0.036113     -0.097442      0.007973
Li	      8.41044      4.28042      8.18229         0.098707     -0.000718     -0.033275
Li	      4.15650      4.35022      3.98414         0.059637      0.022515     -0.103166
Li	      6.36889      4.14875      6.32107         0.054529     -0.104416      0.020695
Li	      8.41717      6.38038     10.14140         0.018804      0.022428     -0.030644
Li	      4.30114      4.18358      8.23294         0.046523     -0.054986      0.043733
Sc	      6.30792      8.53815     10.28790         0.022919      0.203097      0.111790
Ti	      4.14189      6.37850      6.19566        -0.139530     -0.125815     -0.033806
Mn	     10.44660      8.54905     10.26287        -0.164900     -0.035783     -0.148000
V	      2.08837      4.32492      6.17579         0.164092      0.256326      0.036294
Cr	      4.16494      6.43810     10.28493        -0.154992      0.012641      0.055257
Cr	      8.39919      6.39148      6.21286         0.136192     -0.114684     -0.026629
Cu	      6.15442      4.37462      2.06004        -0.186569      0.114528     -0.089357
Cu	      2.09585      2.13963      4.02210         0.002988     -0.013899     -0.275057
Cu	      6.35044      6.29249      8.23227        -0.066182      0.050880      0.073747
O	      2.09250      2.04272      2.11124         0.076341      0.237629     -0.072988
O	      4.22243      4.28019      2.05052        -0.314415     -0.060696     -0.015227
O	      4.19605      2.02249      4.16214         0.074066     -0.036199      0.020992
O	      6.38689      4.17603      3.98878         0.144643     -0.257076      0.363167
O	      6.18486      2.18308      6.14035        -0.101306     -0.026576     -0.054232
O	      8.33313      4.40714      6.09308        -0.027921      0.086881     -0.051783
O	      2.00745      4.41087      4.31886         0.011811      0.022435      0.431458
O	      4.20829      6.44194      4.26743         0.015668      0.023134      0.235661
O	      4.09668      4.34105      6.15857        -0.421000     -0.051201      0.018540
O	      6.27792      6.56195      6.04711        -0.012718      0.239229      0.119438
O	      6.31376      4.24139      8.40382        -0.010959     -0.061207      0.080111
O	      8.26643      6.41828      8.15455         0.161060      0.080553     -0.008650
O	      2.21085      6.35856      6.24068         0.134843     -0.512781     -0.200109
O	      4.24065      8.42291      6.08312         0.380038      0.111747      0.055101
O	      4.32851      6.41858      8.15420         0.044207     -0.079269     -0.098577
O	      6.23270      8.62812      8.06083         0.027143     -0.137567     -0.521180
O	      6.18769      6.45144     10.35690         0.051833     -0.045269     -0.029171
O	      8.39067      8.69103     10.31670         0.066636     -0.029424     -0.011855
