# total energy = -236.53785978 eV
 
CRYSTAL
PRIMVEC
-0.010486 6.215010 6.276382 
6.348720 -0.016882 6.283155 
4.220838 4.136270 0.000232 
PRIMCOORD
36 1
Li	      6.20462      4.05829      2.14984        -0.053271     -0.009644     -0.025764
Li	      4.38034      8.31112      8.42800         0.003956      0.026985     -0.063782
Li	      6.30574      8.29975     10.32939         0.022988      0.054037     -0.027492
Li	      2.17341      4.22043      2.11671         0.029298     -0.055228      0.014890
Li	      4.20841      4.09293      4.09412        -0.003298      0.004007      0.018274
Li	      4.27587      2.00012      6.23665         0.008531      0.049368     -0.023108
Li	     10.52721      8.21297     10.40134         0.025164      0.018560      0.066550
Li	      2.19583      6.25186      4.15426         0.065554      0.005884      0.038987
Li	      8.44899      8.25192      8.48893        -0.007175     -0.018310     -0.028410
Sc	      8.46052      8.26351     12.51563         0.012893      0.019033      0.079104
Ti	      6.50394      6.16768      8.52462         0.127353     -0.007330      0.231950
Mn	      6.24969      4.05969      6.30018        -0.011657     -0.071933     -0.080327
V	      2.11855      2.11932      4.04750        -0.063679     -0.020781      0.129063
Cr	      4.19995      6.22183     10.39942        -0.020327      0.100423     -0.083361
Cr	      2.13751      4.13859      6.29942        -0.029204      0.044560      0.025191
Fe	      4.21405      6.16433      6.36669         0.015522      0.109477     -0.183730
Co	      4.16373      6.20197      2.14841        -0.064658      0.010051      0.005312
Cu	      4.18089      4.15236      0.08994        -0.001810     -0.115531     -0.125926
O	      1.89467      2.12222      2.15197        -0.093745     -0.050915     -0.070899
O	      4.19765      4.30022      2.06523        -0.017657      0.173260      0.144486
O	      4.10594      2.01519      4.09299        -0.055424     -0.056637      0.053488
O	      6.41277      4.28866      4.13794        -0.053547      0.025966      0.021649
O	      6.33335      1.99800      6.45809        -0.089609      0.170379      0.071362
O	      8.36174      4.10944      6.14438        -0.116381     -0.010785     -0.058799
O	      2.11761      3.94732      4.29565        -0.018193      0.080569     -0.111608
O	      4.32335      6.19240      4.12673         0.055667      0.022750     -0.057825
O	      4.15193      4.20041      6.25355        -0.047771     -0.121264     -0.021395
O	      6.25922      6.24296      6.27038         0.109553      0.047914      0.050384
O	      6.35617      4.18677      8.40499         0.011784     -0.015442      0.019937
O	      8.41752      6.17607      8.43228        -0.063117      0.039185      0.036106
O	      2.25911      6.16328      6.25821         0.027866     -0.007567      0.038338
O	      4.26126      8.27757      6.33029         0.047344     -0.276911     -0.047294
O	      4.40162      6.19197      8.34697         0.048699      0.031292      0.205825
O	      6.37319      8.13788      8.29112         0.029521     -0.142744      0.049368
O	      6.25528      6.22775     10.39883         0.090592     -0.001739     -0.363648
O	      8.38290      8.35246     10.51854         0.078240     -0.050939      0.073104
