# total energy = -238.26220887 eV
 
CRYSTAL
PRIMVEC
0.000226 6.420805 6.114136 
6.391369 -0.004776 6.119784 
4.256637 4.279581 0.000692 
PRIMCOORD
36 1
Li	      2.16750      6.38848      8.13185         0.034937     -0.032301     -0.001457
Li	      4.28974      8.53686      8.16792         0.015649      0.011898     -0.056994
Li	     10.45823      6.54349      8.12974        -0.088254      0.042439     -0.026204
Li	      8.42315      4.42168      8.14639        -0.006171      0.060349     -0.021267
Li	      4.25904      2.23859      6.21242        -0.016225      0.025449     -0.025698
Li	      6.31952      4.24309      6.23330        -0.016823     -0.001063     -0.036983
Li	      8.59203      6.44967     10.09075        -0.002022     -0.008591      0.049747
Li	      4.22111      6.35043      6.16085        -0.033734     -0.015939     -0.021588
Li	      4.32761      4.13825      8.08138        -0.045192     -0.000870     -0.055486
Sc	      4.29525      4.28747      0.16330         0.037365     -0.118053     -0.037479
Ti	      6.27953      6.49061      4.05417        -0.105419     -0.068099     -0.105312
Mn	      4.23844      4.29140      4.05219        -0.027980      0.074190     -0.012510
V	      4.22215      6.44300     10.13150        -0.105750      0.017987      0.145783
Cr	      6.40589      8.57599     10.16399        -0.072192      0.082392      0.134980
Cr	      6.47069      6.38651      8.08290         0.058928     -0.141425      0.069133
Fe	      2.14686      2.08812      0.13998         0.127925      0.068140     -0.038165
Co	      6.43586      8.56654      6.18122        -0.074269      0.149165      0.037858
Co	     10.60589      8.51876     10.12856         0.050397      0.038934     -0.024233
O	      2.18705      2.12069      2.13291         0.022537     -0.043112      0.209260
O	      4.26445      4.24700      2.14163         0.037004     -0.000113      0.082583
O	      4.28869      2.06548      4.10322         0.004928      0.039267      0.032164
O	      6.48615      4.25103      4.05913        -0.125524      0.072402      0.024390
O	      6.50740      2.10273      6.07693        -0.102727      0.058345     -0.016224
O	      8.58948      4.16896      5.96079         0.003241      0.033446      0.085838
O	      2.13091      4.12502      4.08376        -0.015639     -0.130199      0.010714
O	      4.39295      6.35591      4.04231         0.213262     -0.055119      0.008926
O	      4.21247      4.30154      5.93467        -0.058378     -0.077518      0.096238
O	      6.38632      6.40382      6.02900        -0.007902      0.078284     -0.015044
O	      6.38503      4.37833      8.18539        -0.128924      0.081742      0.047917
O	      8.41557      6.41203      8.15181        -0.007594      0.047993     -0.009086
O	      2.10682      6.51404      6.11101         0.063269     -0.188311     -0.009832
O	      4.21708      8.59699      6.06212        -0.040205     -0.091556     -0.005903
O	      4.35059      6.40410      8.33007        -0.007757      0.003646     -0.204978
O	      6.39133      8.44579      8.19340         0.050086      0.106269     -0.239290
O	      6.28880      6.53762     10.15915         0.112198     -0.035618     -0.046730
O	      8.42850      8.68673     10.24755         0.256956     -0.084453     -0.025064
