# total energy = -234.01450278 eV
 
CRYSTAL
PRIMVEC
0.001498 6.340890 6.123398 
6.446059 -0.004262 6.129074 
4.290420 4.224416 0.004478 
PRIMCOORD
36 1
Li	      0.09985      6.26055      6.08125         0.026282      0.040536      0.058850
Li	      4.27385      8.49132      8.05618        -0.072468      0.020722      0.019226
Li	      8.57640      4.25524      8.10219         0.002538     -0.021251     -0.007665
Li	      8.37184      6.32506      6.20974         0.027442     -0.025057     -0.008910
Li	      6.45928      4.37392      6.14160         0.001325     -0.080741      0.041535
Li	      2.08888      6.33650      4.16685         0.064689     -0.018691     -0.013322
Li	      6.33419      8.34993      6.20677        -0.040834      0.038376     -0.026859
Li	      4.39131      6.42725      6.17121        -0.039260      0.003919      0.013968
Li	      6.55038      6.35828      8.01036         0.001341      0.018111      0.110878
Sc	      6.38347      2.08228      8.01093         0.021893     -0.101479      0.022392
Ti	      4.21143      4.22144      4.23780        -0.084305      0.020294      0.001700
Mn	      0.05682      4.27104      4.11807         0.135021      0.017241      0.042566
V	      4.38701      0.08203      4.15715        -0.040791      0.066522      0.072027
Cr	      6.43834      6.32256      4.16259        -0.067897     -0.035401     -0.087205
Cr	      4.30123      4.21276      8.13667         0.043425      0.006081     -0.011250
Fe	      2.14133      6.29593      8.03430        -0.085026      0.035307      0.202393
Cu	      6.47786      8.39839     10.24686        -0.022270      0.082341     -0.010205
Ni	      2.18719      8.40404      6.12720         0.065397      0.050326     -0.001365
O	      2.11162      2.03849      2.07210        -0.068548     -0.046337      0.126377
O	      4.35122      4.20288      2.18984         0.029643      0.069165      0.044626
O	      4.16507      2.10617      4.09728        -0.155145      0.057529      0.008696
O	      6.38515      4.27177      4.08047        -0.039210      0.036946     -0.083359
O	      6.55327      2.07062      6.03877        -0.079044      0.019331      0.074422
O	      8.53528      4.18986      5.95061         0.053193      0.065178     -0.057128
O	      2.22913      4.14798      4.07784         0.003288     -0.025890      0.011035
O	      4.38205      6.18572      4.09309        -0.045108     -0.145670     -0.042716
O	      4.30961      4.20196      6.08999        -0.035031     -0.023668     -0.107752
O	      6.41523      6.34190      6.07679        -0.030602     -0.012439      0.083362
O	      6.38426      4.18777      8.28183        -0.045401      0.001450     -0.067484
O	      8.63940      6.43700      8.19499        -0.035141      0.068051     -0.038553
O	      2.14356      6.35275      6.15737         0.026701     -0.092039     -0.122874
O	      4.25924      8.46847      6.00285         0.066174      0.036866     -0.025267
O	      4.18464      6.27830      8.32995         0.034799     -0.087347      0.008144
O	      6.57186      8.51924      8.28416         0.097340     -0.053201     -0.124991
O	      6.28477      6.39855     10.17112         0.093738     -0.004300      0.033028
O	      8.76889      8.58028     10.16936         0.191853      0.019218     -0.138321
