# total energy = -233.31226954 eV
 
CRYSTAL
PRIMVEC
0.034508 6.292126 6.289564 
6.390777 -0.016225 6.337624 
4.261042 4.228639 -0.010753 
PRIMCOORD
36 1
Li	      6.21002      0.04219      6.17667        -0.022566     -0.016480      0.018792
Li	      8.49346      2.22633      6.24550         0.048817      0.021717     -0.018498
Li	      4.47895      6.22499     10.59003         0.049523      0.026226      0.076682
Li	      8.50680      4.24379      8.35278         0.043376      0.041165      0.007363
Li	      6.35517      6.33721      4.18550        -0.066210     -0.003834     -0.000211
Li	      8.70091      6.21697      6.42940         0.029099     -0.080215      0.036855
Li	      6.31860      4.42711     10.41120         0.036980      0.067890      0.005617
Li	      8.43993      6.33366     10.46578         0.040157      0.012219      0.020871
Li	      6.45187      6.25579      8.54939         0.065587      0.013746     -0.006057
Sc	      2.10701      0.06383      2.10478        -0.114852      0.094695     -0.069077
Ti	      6.32737      8.31115      6.22521        -0.236830     -0.056308     -0.317079
Mn	      4.18642      2.09714      2.15937        -0.119645     -0.041774     -0.159210
V	      4.22871      4.23051      4.28529        -0.159129      0.045588      0.000644
Cr	      6.49466      8.31176     10.53997         0.010798     -0.235796      0.002135
Cr	      8.61046      8.36611      8.43865        -0.059191     -0.241469      0.040398
Fe	      6.62847      4.22551      6.34127        -0.093948      0.098674      0.004227
Cu	      6.40359      2.15023      8.38228         0.084671     -0.189471      0.108417
Cu	      4.25856      6.30011      6.28710        -0.015882      0.061375     -0.161779
O	      2.01649      2.06812      2.10650         0.216817      0.026875      0.024817
O	      4.25413      4.03888      2.24648        -0.037749      0.013713      0.060668
O	      4.34951      2.21586      4.09796         0.027709      0.055653      0.120999
O	      6.24412      4.13583      4.27247         0.068638     -0.019607     -0.037016
O	      6.44552      2.20167      6.22802         0.036112      0.061891     -0.028425
O	      8.47089      4.26781      6.30224         0.129858      0.008946      0.002109
O	      2.22169      4.11623      4.36274         0.008315     -0.048228      0.225047
O	      4.26788      6.02473      4.16255         0.001719     -0.007374     -0.081819
O	      4.15148      4.06369      6.28751         0.040879     -0.220980      0.093864
O	      6.23368      6.33851      6.28132         0.190934     -0.012961      0.015279
O	      6.32828      4.27389      8.32128         0.068565      0.102610     -0.005912
O	      8.73267      6.40357      8.41088        -0.203766      0.272760      0.006675
O	      2.29981      6.08789      6.34640        -0.197371     -0.133519      0.004962
O	      4.43209      8.45920      6.45887         0.114810      0.163160     -0.023914
O	      4.21497      6.38164      8.44856         0.076434     -0.125983      0.075344
O	      6.55082      8.39180      8.39192        -0.034884      0.005820      0.047628
O	      6.44978      6.37471     10.52870        -0.015413      0.185083     -0.061907
O	      8.49642      8.41817     10.39994        -0.012362      0.054193     -0.028489
