# total energy = -234.65226836 eV
 
CRYSTAL
PRIMVEC
-0.013996 6.306440 6.345833 
6.302476 0.012870 6.318880 
4.211403 4.196160 -0.001180 
PRIMCOORD
36 1
Li	      4.20984      4.14837      0.12810        -0.032764     -0.011506      0.004003
Li	      2.08861      2.16098      0.11279        -0.017509      0.049311      0.016056
Li	      2.07585      0.10019      2.07817         0.030942      0.036121     -0.006314
Li	      4.11488      2.14768      2.11007        -0.025438      0.011521      0.019374
Li	      4.17124      6.34558     10.47390         0.005303      0.058270     -0.093647
Li	      0.13334      2.00854      2.12274        -0.036559      0.013825      0.033174
Li	      6.27783      6.20472      4.09358        -0.001363     -0.052873      0.001664
Li	      4.24419      4.23609      4.10313         0.011747      0.006655     -0.016202
Li	      6.34287      4.18092      6.30604         0.037725     -0.006299     -0.012297
Sc	      4.20644      2.11020      6.29734         0.062344     -0.075924     -0.011927
Ti	      6.26939      2.28427      4.22426        -0.233177      0.355594      0.156370
Mn	      2.17401      4.09570      2.09587        -0.005554     -0.023206      0.052223
V	      2.10874      6.29944      4.29927        -0.246824     -0.104166     -0.412525
Cr	      4.19283      8.39143      4.25111        -0.016974      0.111147     -0.019243
Cr	      6.26616      6.30900      8.46162        -0.080208     -0.066766     -0.114734
Fe	      4.17111      6.30323      6.33847         0.312476     -0.018262      0.263514
Ni	      6.26851      8.40518      6.38691         0.018394      0.068232     -0.043713
Ni	      4.21478      4.24765      8.43334         0.053961     -0.112748      0.000441
O	      2.08773      2.25637      2.12659         0.015832      0.072180     -0.000535
O	      4.01366      4.21137      2.12908        -0.070458     -0.007128     -0.001379
O	      4.35844      2.08052      4.26167         0.227056      0.062492     -0.052901
O	      6.34839      4.10042      4.14843         0.000434     -0.414688     -0.000349
O	      6.28206      2.12324      6.13085        -0.013030      0.003365     -0.167076
O	      8.38132      4.24329      6.53894         0.018641      0.006612      0.032578
O	      2.00362      4.27692      4.14540        -0.001662     -0.153094     -0.075607
O	      4.17135      6.39062      4.30080         0.067417     -0.114633      0.084813
O	      4.14478      4.23298      6.38677         0.083929      0.012370     -0.104412
O	      6.28003      6.33535      6.41683        -0.008863     -0.150755     -0.001170
O	      6.34486      4.28114      8.53446         0.121082     -0.031109     -0.005635
O	      8.34117      6.25739      8.49820        -0.091589     -0.113566     -0.060749
O	      2.13198      6.25575      6.25452         0.123600      0.064676      0.379036
O	      4.23902      8.32201      6.24129        -0.117705      0.072726      0.030196
O	      4.27729      6.27880      8.36172        -0.026856      0.129663     -0.022512
O	      6.35406      8.31809      8.52764        -0.103511      0.036659      0.085392
O	      6.31261      6.27021     10.47123        -0.023029      0.065097     -0.007482
O	      8.40979      8.31527     10.50481        -0.037809      0.220205      0.071573
