# total energy = -101.25420665 eV
 
CRYSTAL
PRIMVEC
-0.000285 2.091608 2.089815 
8.869571 -4.271197 4.266544 
2.157294 4.188164 -2.095086 
PRIMCOORD
16 1
Li	      2.48032      3.99417     -1.89875         0.042086     -0.011388      0.008997
Li	      2.18762      2.08312      0.01071        -0.000218     -0.001170     -0.001528
Li	      1.89520      0.17211      1.92083        -0.041038      0.012652     -0.009220
Li	      6.62256     -0.05295      2.14361        -0.001365     -0.000972     -0.000318
Ti	      6.47909      2.05524      0.03533        -0.412046      0.035670     -0.033386
Ti	      6.76580     -2.16077      4.25274         0.412651     -0.030682      0.028677
Ni	      4.12507      2.07919      2.10424         0.116922     -0.038812      0.042005
Ni	      9.11960     -0.09283      4.27349        -0.118033      0.037254     -0.040696
O	      6.73806      2.13032      2.05283         0.024290      0.041925     -0.038893
O	      6.50669     -0.14398      4.32473        -0.024280     -0.043447      0.041603
O	      8.71758      0.05796      2.03647        -0.010713      0.134499     -0.133580
O	      8.58679     -2.02707      4.11817        -0.490063     -0.111676      0.116347
O	      2.12384      4.20014     -0.01322         0.218339     -0.002836      0.003032
O	      2.25126      2.05768      2.12501        -0.218956      0.003880     -0.002477
O	      4.65797      1.92170      0.16982         0.492783      0.111924     -0.115830
O	      4.52745     -0.16330      2.25142         0.009641     -0.136820      0.135267
