# total energy = -240.66718784 eV
 
CRYSTAL
PRIMVEC
0.030039 6.373850 6.276416 
6.456660 0.040508 6.265475 
4.312088 4.249162 0.019862 
PRIMCOORD
36 1
Li	      6.50258      4.18774      2.23463         0.028084     -0.055644     -0.016176
Li	      8.47348      4.17866      4.18539        -0.065191      0.005725     -0.022554
Li	      6.53534      2.31436      4.22799         0.045778      0.031271     -0.024030
Li	      6.43829      2.16153      8.28968        -0.034894     -0.026352     -0.013131
Li	      4.47652      4.27208      4.23604        -0.005346     -0.007868      0.010853
Li	      4.37626      2.27213      6.25905         0.017368      0.081384     -0.001955
Li	      6.42273      4.20287      6.16157        -0.002173     -0.005384      0.001884
Li	     10.72737      8.56619     10.45342        -0.003816      0.009706     -0.006268
Li	      4.35721      4.33391      8.36228         0.070315      0.025044      0.029803
Sc	      8.69333      6.48255     10.42364         0.056840      0.020506      0.032557
Ti	      8.47130      4.31942      8.33093        -0.357876      0.154112     -0.057401
Mn	      6.41604      0.07284      6.22271         0.027297      0.024008      0.089257
V	      4.34980      2.15585      2.21627         0.175010     -0.108503      0.120861
Cr	      8.57046      2.16308      6.26416         0.015885     -0.132771     -0.022250
Cr	      6.41658      6.30699      4.18979        -0.066517      0.009332      0.031884
Fe	      4.38580      6.21970      6.31961        -0.064335      0.077662     -0.020339
Fe	      6.45990      6.40298      8.39976        -0.028211      0.072185      0.126613
Co	      2.24314      4.23851      6.25886         0.095194      0.011378      0.020277
O	      2.23089      2.23032      2.09160        -0.004960      0.087026     -0.030404
O	      4.21027      4.15091      1.96770        -0.071663     -0.029715     -0.092871
O	      4.17775      2.15261      4.01575        -0.030426     -0.021891     -0.127143
O	      6.44373      4.37859      4.17187         0.025702      0.007985      0.001933
O	      6.58544      2.01719      6.28179         0.034915     -0.036555     -0.018885
O	      8.56319      4.17207      6.38450         0.002208     -0.038158      0.131724
O	      2.19100      4.21807      4.09113        -0.026052     -0.012849     -0.119253
O	      4.38145      6.38919      4.27636        -0.024979     -0.010799      0.003132
O	      4.28612      4.30396      6.34927        -0.069456     -0.050245     -0.014395
O	      6.38576      6.42360      6.19474         0.001820      0.063267     -0.073452
O	      6.60457      4.31862      8.38285         0.405919     -0.128718     -0.015300
O	      8.64948      6.25929      8.36676         0.141620     -0.232010     -0.009193
O	      2.31011      6.44280      6.28407         0.004093      0.022739     -0.073352
O	      4.24015      8.58727      6.41288        -0.051162     -0.030964      0.001021
O	      4.36044      6.53775      8.29390        -0.205797      0.072726      0.054082
O	      6.31242      8.49390      8.35430        -0.080636      0.181168     -0.067823
O	      6.58811      6.38351     10.57200         0.039670     -0.025368      0.132907
O	      8.66496      8.50772     10.54154         0.005771     -0.003430      0.037387
