# total energy = -236.57210758 eV
 
CRYSTAL
PRIMVEC
0.002014 6.275064 6.389264 
6.328974 0.021433 6.370234 
4.247182 4.198927 -0.014103 
PRIMCOORD
36 1
Li	      6.29219      0.25006      6.37474        -0.077996      0.074525      0.017518
Li	      8.31528      2.11433      6.35751         0.019433      0.013304      0.017822
Li	      6.35707      2.11018      4.38207        -0.006386     -0.015105      0.039500
Li	     10.44729      6.34132      8.42829        -0.047511      0.007200     -0.002867
Li	      8.34808      4.36640      8.47626         0.001100     -0.008661      0.018834
Li	      8.58372      6.23666      6.47249        -0.010309     -0.026798      0.049666
Li	      6.33487      4.18632     10.44621        -0.013280     -0.001373     -0.133545
Li	      8.54528      8.28933      8.54069         0.005181     -0.036372      0.025454
Li	      6.50912      6.19176      8.52033        -0.009712      0.014999      0.023182
Sc	      4.24652      2.15546      2.12814        -0.006868      0.079108      0.002856
Ti	      8.63350     10.31540     10.69836         0.251927     -0.323830      0.275546
Mn	      4.24441      6.26700      6.38269         0.027817      0.074719     -0.022875
V	      2.07500      2.14311      4.20377        -0.092441      0.050897     -0.031464
Cr	      6.34779      4.22056      2.11777         0.136214     -0.052739      0.024936
Cr	      8.40746      6.33960     10.54009        -0.148469      0.096400     -0.023889
Fe	      6.39037      4.04593      6.54282         0.023926      0.065775     -0.116017
Fe	      6.35413      8.36802      6.36667         0.044255      0.004638     -0.054767
Cu	      4.24190      4.20621      4.22071        -0.020840     -0.109382     -0.058933
O	      2.15146      2.04630      2.22419        -0.034772     -0.054169      0.070597
O	      4.35399      4.20212      2.22080        -0.061065     -0.025894     -0.198497
O	      4.12725      2.05131      4.21829        -0.111308     -0.041872      0.018295
O	      6.52127      4.27726      4.15216         0.141656      0.064400     -0.038397
O	      6.30620      2.18466      6.35463         0.000963     -0.043082     -0.007718
O	      8.41672      4.18876      6.19496         0.026921      0.011935     -0.310804
O	      2.01395      4.24382      4.35525        -0.173301     -0.156105      0.053126
O	      4.18402      6.26783      4.26459         0.284180      0.096949     -0.027592
O	      4.23232      4.32122      6.24307        -0.016435      0.024226      0.118696
O	      6.31106      6.32257      6.22408        -0.084211     -0.076825     -0.028067
O	      6.34628      4.23423      8.38120        -0.027956      0.018754      0.087538
O	      8.43511      6.31334      8.64300         0.020053     -0.003297      0.034801
O	      2.14573      6.22703      6.40457         0.102381      0.027569      0.033254
O	      4.31436      8.19230      6.43791        -0.065757     -0.068835      0.063148
O	      4.13525      6.29252      8.58209         0.036502      0.028657      0.089014
O	      6.33474      8.47889      8.36578         0.034915      0.067079     -0.015045
O	      6.27849      6.31254     10.63630        -0.216099      0.006113      0.003900
O	      8.47856      8.42588     10.62564         0.067291      0.217091      0.002794
