# total energy = -237.84884559 eV
 
CRYSTAL
PRIMVEC
-0.000003 6.398863 6.229595 
6.340859 0.000091 6.229258 
4.237238 4.275752 -0.009339 
PRIMCOORD
36 1
Li	      2.32689      8.50898      6.20822        -0.049260     -0.006391      0.001704
Li	      4.23160      8.42238      8.25385         0.011029     -0.004925      0.023867
Li	      4.30297      6.44238     10.25389        -0.005394      0.080732      0.009789
Li	      2.19585      2.12745      4.13039         0.110963     -0.024852      0.004503
Li	      4.20930      4.22446      4.13624        -0.010149     -0.024601      0.001466
Li	      4.19047      8.56845      4.27836        -0.013848     -0.023403     -0.026504
Li	      4.16793      6.59574      6.28335        -0.037501      0.032961     -0.020535
Li	      4.18635      4.44945      8.32811        -0.024037      0.008672     -0.029359
Li	      6.16776      6.36737      8.38834        -0.060704     -0.051584     -0.003324
Sc	      4.27667      6.40978      2.13174         0.024814      0.033209      0.049449
Ti	      6.24190      4.36469      6.15756        -0.181992      0.127574      0.008624
Mn	      6.26369      8.47472      6.26350         0.074316     -0.065493     -0.026025
V	      2.13616      6.45770      4.19320        -0.067571      0.003173      0.022987
Cr	      2.20926      6.40836      8.32275        -0.020432      0.037048     -0.004821
Cr	      6.33884      8.50573     10.34227        -0.012724     -0.026475     -0.025563
Fe	      2.17764      4.20269      2.09624         0.001850     -0.033016      0.014992
Fe	      4.21317      2.09560      6.15713         0.005079      0.037877      0.152119
Ni	      4.22094     10.55661      6.19201        -0.052779      0.104346     -0.005010
O	      2.10169      2.15584      2.14469        -0.003221     -0.072593     -0.015684
O	      4.23839      4.32523      2.03186         0.068558      0.030420      0.130309
O	      4.32384      2.13141      4.25147         0.006767     -0.004159     -0.139975
O	      6.37255      4.17954      4.18240         0.001718      0.019171      0.087427
O	      6.28316      2.20773      6.18605         0.034548      0.050680     -0.023134
O	      8.40691      4.31579      6.28335        -0.105872     -0.012812     -0.013708
O	      2.10033      4.48026      4.06585        -0.001278     -0.012723      0.038957
O	      4.08045      6.43498      4.14325         0.022695      0.007322      0.028780
O	      4.35870      4.14664      6.24275         0.226685      0.035590     -0.004212
O	      6.41750      6.26302      6.16175        -0.040069     -0.214334     -0.006888
O	      6.44590      4.22529      8.12471        -0.029135      0.000260     -0.096950
O	      8.49403      6.29180      8.30186         0.030788      0.007644     -0.018259
O	      2.07117      6.40131      6.22145         0.105566      0.064118     -0.010070
O	      4.22721      8.57280      6.21017        -0.031262     -0.104742      0.002966
O	      4.12908      6.40304      8.30691        -0.003790      0.003853     -0.006042
O	      6.36214      8.68636      8.37592        -0.004032     -0.001053      0.033782
O	      6.42111      6.49359     10.39547         0.020019     -0.004451     -0.119687
O	      8.37294      8.30600     10.34989         0.009655      0.002958     -0.015968
