# total energy = -242.53884105 eV
 
CRYSTAL
PRIMVEC
-0.010436 6.362323 6.408453 
6.272970 -0.012182 6.409725 
4.193119 4.253648 -0.019073 
PRIMCOORD
36 1
Li	      4.22143      2.08626      2.29373         0.035274     -0.028510      0.028317
Li	      4.14916      0.04115      4.22548        -0.037100     -0.004124      0.000552
Li	      6.20522      2.14385      4.18904        -0.008597      0.025313      0.071884
Li	      4.16764      6.39523      2.20122        -0.010217     -0.000256     -0.027723
Li	      4.24968      4.23418      4.28216        -0.032642     -0.000694      0.042016
Li	      6.18467      4.30617      6.39785         0.086224     -0.055431      0.035846
Li	      8.42952      6.39871     10.59142         0.019214     -0.063585      0.004993
Li	      4.22988      6.27766      6.35112        -0.062097      0.011844      0.011466
Li	      6.28858      6.33138      8.60072         0.010692     -0.002967      0.044870
Sc	      6.28412      8.46042      6.41516        -0.208085      0.029328     -0.010365
Ti	      6.25790      6.42752     12.66571         0.160952      0.229355     -0.238067
Mn	      2.13877      4.28593      2.17670         0.013870      0.138374      0.045891
V	      6.28538      4.27443      2.19927        -0.055530     -0.174992      0.000442
Cr	      6.28643      6.33696      4.26596        -0.028697     -0.030545      0.047163
Cr	      4.19748      2.12843      6.37537         0.184701     -0.070169     -0.006686
Fe	      8.34904      2.14005      6.38609        -0.110988     -0.108725     -0.198257
Fe	     10.40058      8.39912     10.60962         0.170179      0.112140      0.190807
Fe	      8.38682      8.44331      8.58368        -0.018579      0.051283     -0.155756
O	      2.11124      2.02844      2.21259         0.000211     -0.037215     -0.221766
O	      4.36501      4.21959      1.97839         0.008400      0.008347      0.038851
O	      4.10453      2.11160      4.37622        -0.021443      0.032756     -0.010034
O	      6.24549      4.34029      4.11385         0.006309      0.022707     -0.069627
O	      6.27032      2.01583      6.35859        -0.615259     -0.236637      0.029862
O	      8.49418      4.31565      6.41965         0.034076      0.105604     -0.020621
O	      2.03664      4.15876      4.31633         0.023499     -0.035123     -0.032234
O	      4.24983      6.44537      4.29481         0.055736     -0.082316     -0.038663
O	      4.16857      4.15081      6.49615        -0.025654      0.029018      0.002076
O	      6.35129      6.37634      6.30482         0.003795      0.003593     -0.018822
O	      6.19867      4.29348      8.63634         0.031059     -0.033388     -0.063284
O	      8.37258      6.43640      8.41279        -0.014321      0.008609      0.043292
O	      1.98172      6.34259      6.47707         0.001148     -0.096450      0.095055
O	      4.14905      8.61198      6.32551         0.522250      0.131543     -0.131548
O	      3.94821      6.26604      8.47453         0.027556      0.002628      0.067705
O	      6.30147      8.54521      8.52454        -0.008361      0.068571      0.003804
O	      6.30320      6.27515     10.81537        -0.034145      0.020301      0.146278
O	      8.42100      8.46759     10.60024        -0.103428      0.029816      0.292284
