# total energy = -229.70333998 eV
 
CRYSTAL
PRIMVEC
-0.011702 6.301567 6.344005 
6.257494 0.000643 6.331983 
4.179571 4.200886 -0.007323 
PRIMCOORD
36 1
Li	      8.33000      4.27115      4.26337         0.000153     -0.007934      0.024637
Li	     10.22266      6.31813      8.48223         0.112277     -0.028727     -0.002615
Li	      8.35542      4.37476      8.43732        -0.007859      0.012575     -0.005983
Li	      2.21386      2.16511      4.37422        -0.011817     -0.001442     -0.018649
Li	      4.07608      4.09945      4.37406         0.015242     -0.018585      0.005780
Li	      8.16539      6.41354      6.43178         0.027123     -0.008934     -0.000100
Li	      8.40347      6.26176     10.35901         0.007306     -0.034513     -0.012685
Li	      2.24308      4.02187      6.28325        -0.042160      0.059229     -0.021014
Li	      6.40051      6.33356      8.28316        -0.074290     -0.020543      0.018372
Sc	      6.29142      4.23457      2.23322        -0.067223      0.032639      0.035084
Ti	      0.15421      4.12479      4.05265         0.371708     -0.193012     -0.159450
Mn	      8.33564      2.11015      6.31068         0.031937      0.016262      0.077702
V	     10.38155      4.21368      6.32783         0.041138     -0.052491      0.168360
Cr	      6.21886      2.07842      4.21931        -0.007818     -0.022526     -0.028206
Cr	      4.22396      6.26362      6.31164        -0.048273      0.029193     -0.075350
Ni	      4.18699      2.04963      2.17890        -0.046880      0.092180     -0.034030
Ni	      6.23734      4.27267      6.33165         0.098760     -0.112305      0.045487
Ni	      8.33269      8.30951      8.41158        -0.019004      0.109595      0.037085
O	      8.33281      6.34677      8.40026         0.010367     -0.141986      0.022095
O	      2.14084      2.08198      1.91373        -0.143624      0.039630     -0.075138
O	      4.19652      4.15464      1.84498         0.008428      0.076011      0.033380
O	      4.25450      2.07842      4.19216         0.041590     -0.009903      0.159982
O	      6.25378      4.08504      4.25636         0.027190     -0.022362     -0.086718
O	      6.39120      2.02499      6.26636         0.018547      0.020361      0.002502
O	      8.40796      4.04323      6.33843         0.034947     -0.098398     -0.043900
O	      1.96180      4.21925      4.22890        -0.412420      0.014667     -0.009593
O	      4.17913      6.45544      4.29463        -0.011215      0.205957     -0.034710
O	      4.19110      4.30745      6.36050        -0.070363     -0.007910     -0.049245
O	      6.16917      6.27562      6.31621        -0.012196      0.137785      0.008456
O	      6.21873      4.20589      8.54194         0.129341      0.001555      0.255052
O	      2.03844      6.43817      6.37369         0.028375      0.100711     -0.008356
O	      4.03319      8.43737      6.26933        -0.052276     -0.076662     -0.053641
O	      4.14334      6.28502      8.33155        -0.018949     -0.059237      0.022042
O	      6.23169      8.42679      8.56441         0.027246     -0.028359     -0.003663
O	      6.23879      6.26621     10.80437         0.019204     -0.007795     -0.193281
O	      8.31991      8.40498     10.69328        -0.004512      0.005273      0.000312
