# total energy = -238.55627983 eV
 
CRYSTAL
PRIMVEC
-0.004143 6.136979 6.321958 
6.308979 -0.020128 6.339117 
4.198635 4.095278 -0.006820 
PRIMCOORD
36 1
Li	      2.14464      6.11503      8.45088         0.060726     -0.020839      0.081000
Li	      4.12957      2.01419      2.13602        -0.067110     -0.065483      0.057053
Li	      6.30034      2.06144      8.45042         0.034867      0.039827     -0.028397
Li	      6.31608      6.12093      4.27678        -0.033593     -0.028389      0.025275
Li	      8.19128      6.12965      6.33989        -0.101056      0.021225     -0.048770
Li	      6.26978      4.21189      6.32513        -0.062231     -0.066320     -0.007364
Li	      2.13438      6.08868      4.15938         0.036896     -0.013253     -0.016355
Li	      6.35687      8.04672      6.42169         0.008646     -0.019452      0.098025
Li	      6.31747      6.10944      8.26599        -0.029452     -0.000282     -0.078590
Sc	      6.26256      8.11874     10.46338        -0.060217      0.035090     -0.079825
Ti	      0.15227      6.15151      6.43431         0.184289      0.153424     -0.006743
Mn	      8.33316      4.13932      8.41231        -0.016973      0.009739      0.027576
Mn	      8.43942      8.08537      8.40230        -0.003782     -0.011341     -0.085209
V	      4.16070      4.12213      4.24436         0.109086      0.064439      0.059197
Cr	      2.11440      2.09621      0.03557        -0.066577      0.005834      0.047695
Cr	      4.26855      6.14192      6.36910         0.108676     -0.219111     -0.111631
Co	      0.03524      4.07132      4.18627         0.030180     -0.092535     -0.094635
Cu	      4.15655      0.05612      4.17642        -0.040247      0.133437     -0.087273
O	      2.07452      2.24437      1.99444         0.017484     -0.045044     -0.048172
O	      4.18463      4.10113      2.03806         0.020806      0.017918     -0.057180
O	      4.20785      2.04418      4.18724        -0.028028      0.173832     -0.009425
O	      6.02141      4.06042      4.14292         0.000837      0.035242     -0.021121
O	      6.41700      1.92494      6.30717         0.046847     -0.170857      0.028773
O	      8.51100      4.07278      6.32622         0.055089      0.024317      0.300591
O	      2.26925      4.08348      4.09127        -0.204958      0.007512     -0.082306
O	      4.17464      6.08577      4.35217        -0.087663      0.209946     -0.099403
O	      4.17567      4.14748      6.18390        -0.068107     -0.098874      0.107163
O	      6.18326      6.13566      6.30144        -0.099409     -0.001086     -0.013823
O	      6.22598      4.05279      8.49346         0.106211      0.048753     -0.044801
O	      8.40694      6.08997      8.41761         0.024283     -0.019736      0.011969
O	      2.07739      6.20248      6.40090        -0.119800      0.020827      0.056601
O	      4.14720      8.19795      6.33802         0.029318      0.139976      0.089877
O	      4.19318      5.99265      8.40600         0.029719      0.038365     -0.176813
O	      6.49520      8.11156      8.46726        -0.060274     -0.008821     -0.015372
O	      6.41223      6.07323     10.79113         0.126214     -0.083393      0.158904
O	      8.39358      8.28935     10.65150         0.119301     -0.214885      0.063508
