# total energy = -241.30813043 eV
 
CRYSTAL
PRIMVEC
0.016545 6.274478 6.254177 
6.387842 0.021728 6.249052 
4.272901 4.193640 0.000390 
PRIMCOORD
36 1
Li	      4.25585      4.19653      0.10701        -0.012863     -0.058106      0.037529
Li	      2.16047      2.10518      0.14508         0.078214      0.023242     -0.044088
Li	      4.12014      2.12993      1.99598         0.058896     -0.043940     -0.066200
Li	      6.32564      2.16738      4.15870        -0.015174     -0.014752     -0.001333
Li	      0.13882      2.07932      2.04169        -0.017222     -0.031223      0.013692
Li	      2.21293      3.93272      2.03457         0.036790     -0.000434     -0.035905
Li	      2.18962      2.06271      4.03608         0.037038      0.045749      0.014949
Li	      4.27893      6.34576      6.27804        -0.053375     -0.010358      0.017336
Li	      6.38554      6.33144      8.30012        -0.036810      0.052730     -0.006981
Sc	      8.43269      6.35312     10.46818         0.014851     -0.100501      0.062803
Ti	      4.33099      8.29517      4.22709         0.169403     -0.083396      0.548765
Mn	      4.31560      4.17254      4.10901        -0.047025      0.092873     -0.038803
Mn	      4.25483      4.23263      8.27943        -0.045322      0.109988      0.148130
V	      8.58005      6.25170      6.28027         0.235189      0.011223      0.170743
Cr	      2.13195      0.05894      2.05483        -0.034120      0.026913     -0.024145
Cr	      4.28797      0.03804      4.18388        -0.040720     -0.207891     -0.115994
Co	      6.34577      8.35662      6.28190         0.088423      0.072668     -0.004009
Co	      6.43458      4.23623      6.30285        -0.015711     -0.074711      0.028139
O	      2.14356      2.00988      2.06204        -0.011723     -0.044860     -0.043452
O	      4.38887      4.15886      2.21412         0.012785     -0.010383      0.135940
O	      4.29707      2.08638      4.25824         0.002351     -0.046533      0.096347
O	      6.51221      4.20928      4.14217         0.001996      0.014716      0.005467
O	      6.14720      2.16620      6.26683        -0.078972      0.035324     -0.001221
O	      8.54709      4.28943      6.22038        -0.128352      0.226228     -0.153663
O	      2.01395      4.22547      4.07945        -0.093866      0.006547      0.124361
O	      4.18368      6.32590      4.17903        -0.015706      0.052035     -0.017120
O	      4.26186      4.17011      6.09484         0.133716     -0.073931     -0.079488
O	      6.63538      6.31488      6.24582        -0.122447      0.430281      0.036857
O	      6.22364      4.21212      8.40060         0.018443      0.041726      0.011822
O	      8.49055      6.45296      8.30305        -0.013418      0.087520     -0.165260
O	      2.09225      6.24536      6.27393        -0.027588     -0.459062      0.090651
O	      4.30303      8.32916      6.11987        -0.119689      0.022911     -0.421311
O	      4.22398      6.21337      8.41065        -0.061530      0.028482     -0.032721
O	      6.58648      8.47031      8.33784         0.032942     -0.035310     -0.321313
O	      6.35181      6.17677     10.42213         0.006842     -0.049121      0.005175
O	      8.64446      8.45111     10.48862         0.063755     -0.036646      0.024303
