# total energy = -235.56185924 eV
 
CRYSTAL
PRIMVEC
-0.001486 6.040875 6.488402 
6.240062 0.000957 6.485918 
4.175109 4.042113 -0.015497 
PRIMCOORD
36 1
Li	      6.20945      3.95097      2.24942         0.008197      0.003504      0.003396
Li	      4.26285      8.13515      8.62222        -0.020244     -0.014782     -0.061665
Li	      2.13185      4.02092      2.33017         0.025030     -0.058695     -0.019205
Li	      2.12698      2.12533      4.32659         0.011193     -0.007168      0.013255
Li	      4.05463      3.97796      4.22445         0.000887     -0.011134     -0.001503
Li	      6.23491      4.06724      6.41895        -0.007081     -0.004658     -0.073691
Li	      0.14274      4.01141      4.30119        -0.034567     -0.019696      0.026447
Li	      6.21175      8.05284      6.41120         0.021695     -0.012099     -0.052407
Li	      8.25453      8.08055      8.64013        -0.028646      0.037584     -0.052301
Sc	      8.30624      2.08359      6.53322        -0.027851      0.013282      0.087545
Ti	      4.23829      6.09040      2.28447         0.403429     -0.063161     -0.007020
Mn	      4.13243      6.05024     10.76270        -0.138056      0.161147     -0.041117
Mn	      6.23686      6.01569      8.60191        -0.036379     -0.003434     -0.039392
V	      4.22899      5.96000      6.49257         0.021685     -0.168425     -0.140744
Cr	      4.14383      2.06242      6.50608        -0.076775      0.050252     -0.118951
Cr	      2.06943      5.99753      4.28934        -0.017549     -0.186531      0.056919
Cu	      6.21635      8.11807     10.69254        -0.096019      0.190344     -0.039102
Ni	      4.21077     10.02734      6.55922         0.051279     -0.056570     -0.013069
O	      1.94483      2.03283      2.11867        -0.259724     -0.012716      0.043011
O	      4.19740      4.14144      2.10993        -0.040970      0.157280      0.143874
O	      4.18970      1.95989      4.50579        -0.024289     -0.019951      0.092138
O	      6.41914      3.99856      4.24979         0.087792      0.133654      0.073178
O	      6.16174      2.03248      6.71170        -0.005831      0.097575      0.191525
O	      8.40245      4.12346      6.49469        -0.189060     -0.016019     -0.011796
O	      2.07392      4.10181      4.30792        -0.033406      0.167487      0.005081
O	      4.08842      6.04429      4.27014        -0.062047      0.028380     -0.036768
O	      4.19412      4.12123      6.41327        -0.048109      0.004603      0.045716
O	      6.23998      6.02782      6.45082         0.008864      0.001508      0.004011
O	      6.21202      4.01427      8.69257        -0.014755     -0.079631      0.042545
O	      8.32636      6.07131      8.64720        -0.021848      0.008052      0.007383
O	      2.14690      6.03748      6.32292         0.063828      0.010094     -0.027787
O	      4.11974      7.90282      6.46088         0.030960      0.010568     -0.040469
O	      4.21253      6.01542      8.44526         0.132494      0.005909      0.014978
O	      6.22884      7.89350      8.56207         0.071008     -0.016004     -0.133234
O	      6.21277      6.10939     10.87186        -0.004462     -0.236376      0.095305
O	      8.26852      8.11536     10.88576         0.249328     -0.094176     -0.036083
