# total energy = -236.68962453 eV
 
CRYSTAL
PRIMVEC
-0.006563 6.451547 6.124238 
6.333514 -0.018676 6.136621 
4.233796 4.320840 -0.023835 
PRIMCOORD
36 1
Li	      8.34742      4.27688      4.05645         0.017653     -0.001897      0.001306
Li	      0.04362      2.20660      2.10650         0.036738      0.017838     -0.021118
Li	      8.34384      4.31730      8.19670        -0.028947      0.012645     -0.005865
Li	      6.17398      6.52434      4.10156        -0.082553      0.084490      0.021876
Li	      4.26663      4.35124      4.08473        -0.001306      0.041286     -0.013391
Li	      0.01891      4.19979      4.00774        -0.028505     -0.002386     -0.003648
Li	      2.17210      4.27093      6.09093         0.023407      0.002603      0.031004
Li	      4.19775      6.47102      6.06456         0.002199      0.025733      0.012436
Li	      4.27129      4.29832      8.13232         0.022683      0.000202     -0.002415
Sc	      4.21827     10.70637      6.10772        -0.020493      0.020180      0.031956
Ti	      4.10585      2.12731      2.09089        -0.143521     -0.020248     -0.005808
Mn	      6.31838      4.32619      6.11183         0.046579     -0.010376      0.010202
Mn	      6.28892      6.43986      8.13879        -0.139686      0.013906      0.010323
V	      2.27821      6.33126      3.99333         0.379612      0.023878      0.171316
Cr	      6.35060      8.58310     10.19996        -0.176340     -0.067255      0.003777
Cr	      4.20542      2.19172      6.15270         0.047269     -0.092596     -0.119190
Cu	      2.15414      8.57733      6.09701        -0.009488      0.079443      0.153906
Cu	      2.15091      6.42972      8.19684         0.033401     -0.012519     -0.002282
O	      2.21120      2.24685      1.99868         0.099362      0.178417      0.014531
O	      4.39812      4.12163      2.03065        -0.191205     -0.162626      0.060244
O	      4.28369      2.13782      4.07686        -0.014595     -0.010147     -0.107831
O	      6.36710      4.13092      4.14290         0.014865     -0.065824      0.026031
O	      6.22536      2.06282      6.10658         0.014875     -0.003026     -0.039419
O	      8.38567      4.39940      6.11593        -0.012167      0.289430     -0.006128
O	      2.09190      4.56034      4.05526        -0.084613     -0.049641     -0.005718
O	      4.13633      6.52151      4.04046        -0.123522      0.035325      0.006371
O	      4.37321      4.17273      6.12221         0.002043     -0.008919     -0.017812
O	      6.43996      6.52380      6.17565        -0.007068      0.023451     -0.105083
O	      6.30499      4.51160      8.06618         0.020592     -0.064658      0.007774
O	      8.50179      6.49036      8.16268        -0.055791     -0.015454      0.071440
O	      2.08600      6.46968      6.05233        -0.058038     -0.198343     -0.088185
O	      4.26713      8.66042      6.24357         0.002872     -0.005769      0.041150
O	      4.11885      6.58106      8.17306         0.187591      0.100554     -0.008604
O	      6.22921      8.41235      8.22621        -0.000679     -0.105976     -0.018684
O	      6.39609      6.50584     10.14489         0.066415      0.003114     -0.044261
O	      8.34632      8.43607     10.28852         0.160359     -0.054835     -0.060198
