# total energy = -97.06057930 eV
 
CRYSTAL
PRIMVEC
-0.000036 2.064746 2.064745 
17.752150 0.000136 -0.000233 
0.000087 2.064752 -2.064752 
PRIMCOORD
16 1
Li	      0.28817      0.00136      0.00042         0.006242     -0.002127     -0.001165
Li	      2.21675      2.06603     -0.00019        -0.001095      0.000297     -0.000174
Li	      4.14754      0.00192     -0.00080        -0.004781     -0.000847      0.000232
Li	     11.09601      2.06462     -0.00070        -0.009782     -0.000712     -0.001114
Ti	      9.07944      2.06453      2.06352        -0.037396      0.000312      0.001833
Ti	     13.10893      2.06444      2.06400         0.050463      0.000611      0.000378
Ni	      6.54469      2.06517     -0.00112         0.167358     -0.000313      0.000632
Ni	     15.64446      2.06475     -0.00032        -0.168794      0.000153     -0.000119
O	     13.08554      2.06450     -0.00077        -0.001647     -0.000076      0.000513
O	     15.06014      2.06465      2.06426        -0.169834      0.000325      0.000264
O	      9.10340      2.06453     -0.00110         0.005084      0.000793      0.000096
O	     11.09483      2.06457      2.06398        -0.002381     -0.000389     -0.001044
O	      4.68310      2.06650     -0.00082        -0.274870      0.000568     -0.000608
O	      7.12866      2.06497      2.06361         0.168763     -0.000140     -0.000133
O	     17.50622      2.06594     -0.00011         0.274349      0.000792      0.000209
O	      2.21810      0.00128     -0.00020        -0.001679      0.000754      0.000200
