# total energy = -239.49702432 eV
 
CRYSTAL
PRIMVEC
-0.010305 6.270242 6.601314 
6.254582 0.031431 6.561036 
4.189986 4.173045 0.000592 
PRIMCOORD
36 1
Li	      6.24654      6.10646     12.93734         0.029251     -0.003799     -0.072164
Li	      8.54761      8.36570     12.85483        -0.046853      0.015716     -0.031486
Li	      4.12586      8.37920      8.49133         0.040421     -0.002419     -0.008461
Li	      4.32265      6.20403     11.03836        -0.046804      0.000286      0.016917
Li	      6.35947      8.22062     11.04125        -0.020199      0.070459      0.025314
Li	      4.23234      6.23977      2.25812        -0.042773      0.031716      0.055859
Li	      4.12647      8.49989      4.63797         0.000228     -0.025284     -0.013123
Li	      8.16680      6.35046     11.16823         0.041952      0.003575      0.029321
Li	      6.06971      8.42309      6.60611         0.051905     -0.014823      0.056357
Sc	      8.39804      8.35732      8.97926        -0.007929     -0.044734      0.069123
Ti	      1.98713      6.29410      8.57534        -0.043860     -0.115899     -0.541705
Mn	      4.15870      4.20960      4.39776        -0.022352     -0.081374      0.017842
Mn	      6.16431      6.39711      8.95672         0.021816      0.015693      0.087487
V	      4.29304      2.09840      6.57398         0.138511      0.039185     -0.030250
Cr	      2.13821      4.12675      2.17361         0.027313      0.022453     -0.000550
Cr	      6.24803      6.29210      4.41392         0.075997      0.024303     -0.010946
Fe	      6.30854      4.19080      6.55646        -0.036264     -0.139215      0.041576
Ni	      4.12969      6.37301      6.56046        -0.000693     -0.209369     -0.001155
O	      2.07822      2.05636      2.38690         0.018357     -0.026389     -0.049520
O	      4.23150      4.19220      2.19454         0.055877     -0.017741     -0.018927
O	      4.07559      2.23671      4.60406         0.009125     -0.033456     -0.041525
O	      6.16228      4.27295      4.50067         0.037679     -0.021521     -0.123170
O	      6.08779      2.17364      6.50470        -0.083608     -0.038652      0.050112
O	      8.31025      4.27011      6.67497         0.051825     -0.008496     -0.005754
O	      2.20166      4.13326      4.19386        -0.026239     -0.022341      0.010472
O	      4.24216      6.13656      4.48657         0.006382      0.032001     -0.101894
O	      4.24680      4.12887      6.67451        -0.079272      0.024946      0.004315
O	      6.37121      6.23303      6.49648         0.007792      0.138282     -0.104119
O	      6.35005      4.17243      8.58635         0.000763     -0.053905      0.036471
O	      8.34985      6.20268      8.55216         0.051886      0.009143      0.044146
O	      2.04268      6.32527      6.73857        -0.028448     -0.024635      0.551771
O	      4.19136      8.30785      6.56531        -0.000150      0.211148      0.015419
O	      4.01911      6.27098      8.71998        -0.137255      0.023820      0.041040
O	      6.29421      8.54912      8.78305        -0.059464      0.206542     -0.037055
O	      6.24073      6.29812     10.95439        -0.022618      0.014493      0.049865
O	      8.36221      8.35358     10.89905         0.037702      0.000292     -0.011606
