# total energy = -243.72618497 eV
 
CRYSTAL
PRIMVEC
0.035121 6.089904 6.480465 
6.381993 0.004963 6.510296 
4.267147 4.093709 -0.009235 
PRIMCOORD
36 1
Li	      4.36006      8.09324      8.72249         0.007237      0.014039      0.043192
Li	      6.38017      8.14234     10.74975        -0.011452      0.012964     -0.000016
Li	      4.27554      6.11418      2.15268         0.023679     -0.024480     -0.016027
Li	      6.45502      6.11345      4.48890         0.006199      0.040785      0.039852
Li	      8.34993      6.21936      6.48572         0.019355     -0.051354      0.017279
Li	      8.48300      6.12976     10.79773        -0.034107     -0.025558      0.020223
Li	      6.49293      8.00501      6.54422        -0.004906      0.114847      0.003875
Li	      4.41187      6.09707      6.52604        -0.042569      0.038039      0.019953
Li	      6.43863      6.21259      8.50419         0.011792      0.018430     -0.011599
Sc	      2.19186      4.12141      2.20027         0.009903     -0.051538     -0.049595
Ti	      4.30938      7.99968      4.29564         0.069615     -0.300756      0.089266
Mn	      2.15104      8.07049      6.44023         0.041177      0.071749      0.015444
Mn	      6.39269      4.11401      2.18325        -0.001433      0.051965     -0.027165
V	      6.42170      6.12829     12.95484        -0.096381      0.015188     -0.001959
Cr	      6.35847      4.12999      6.49593         0.046800     -0.062316     -0.011275
Cr	      8.52914      8.11691      8.61921         0.027925     -0.015029     -0.001262
Fe	      4.24606      0.15311      4.27141        -0.048433     -0.062021      0.122593
Fe	      4.26817      4.07662      4.41765        -0.011550      0.022026      0.002039
O	      2.15664      1.97781      2.14386        -0.004067     -0.040163     -0.030318
O	      4.33354      4.05927      2.02094        -0.042750     -0.022101     -0.053863
O	      4.28990      2.06274      4.34738        -0.013000     -0.022059     -0.014315
O	      6.48768      4.09775      4.48060        -0.007695     -0.012185     -0.010027
O	      6.55505      2.02436      6.46655         0.017374      0.030128      0.040814
O	      8.48652      3.99588      6.49967        -0.034686     -0.036885     -0.019171
O	      1.97274      4.07048      4.26283        -0.191958      0.012425     -0.036441
O	      4.24188      6.14316      4.31908        -0.000444      0.419212     -0.060316
O	      4.38424      4.07281      6.59955        -0.028481     -0.002289      0.123791
O	      6.39227      6.04590      6.53672        -0.017322      0.045339     -0.001244
O	      6.38668      4.05841      8.71627        -0.008344      0.017395     -0.006741
O	      8.55138      6.12592      8.64483        -0.023355      0.016762      0.000880
O	      2.07379      6.17796      6.44508         0.098215     -0.048148     -0.010335
O	      4.14449      8.17855      6.28036         0.063432     -0.054078     -0.082318
O	      4.17691      6.07454      8.75985         0.015757     -0.015123     -0.080174
O	      6.52775      8.27957      8.63098         0.025774     -0.040079     -0.000075
O	      6.28915      6.03178     10.94256         0.088110     -0.026311      0.001125
O	      8.67139      8.19917     10.66728         0.050589     -0.028819     -0.016092
