# total energy = -235.71099977 eV
 
CRYSTAL
PRIMVEC
-0.006880 6.326343 6.442428 
6.234921 -0.000477 6.435578 
4.155178 4.211620 0.001093 
PRIMCOORD
36 1
Li	      8.27992      4.18220      4.36044        -0.004058     -0.003292      0.053671
Li	     10.20540      6.35744      8.57832         0.024886     -0.028375      0.013754
Li	      8.27266      4.41847      8.51368         0.009750      0.030072     -0.005498
Li	      4.17518      4.21293      4.36806         0.027471     -0.007360      0.028355
Li	      8.27169      6.39281      6.65431         0.004573      0.021504      0.007946
Li	      6.27312      4.18095      6.47111         0.000631      0.004997     -0.056960
Li	      4.18597      6.22422      6.45254         0.041515     -0.017555     -0.014149
Li	      4.17054      4.04517      8.42558        -0.031009      0.024864     -0.098757
Li	      6.38921      6.28826      8.55312        -0.061050      0.045240     -0.007021
Sc	     10.25806      4.27668      6.46921        -0.041659      0.015040     -0.002500
Ti	      4.16671      8.34003      8.64753         0.010525     -0.246531      0.084441
Mn	      6.23252      6.29220      4.34935        -0.037630     -0.027370      0.008020
Mn	      2.17307      4.20179      6.41035        -0.029547      0.026760     -0.046892
V	      6.20198      4.22062     10.47018        -0.027687      0.134610      0.227744
Cr	      6.24439     10.52101      8.61483         0.014202     -0.037328     -0.012394
Cr	      6.26624      2.12593      4.31515         0.032412     -0.039441      0.022592
Ni	      8.30641      2.12651      6.44449         0.023160     -0.090951      0.069939
Ni	      8.34495      6.31290     10.59061         0.039879     -0.027329      0.058514
O	      2.16614      2.00815      2.27089         0.072840     -0.033679      0.058731
O	      4.23636      4.08627      2.12057         0.038545     -0.077610     -0.014481
O	      4.20791      2.09448      4.13431        -0.030575     -0.001101     -0.152131
O	      6.24340      4.13226      4.17645         0.004365     -0.063161     -0.023682
O	      6.27534      2.10937      6.31206        -0.172866     -0.053233     -0.035661
O	      8.29651      4.12656      6.48658        -0.016212      0.153421      0.040620
O	      1.90801      4.24855      4.26737        -0.038049     -0.091638     -0.021356
O	      4.18471      6.51871      4.28543         0.188760      0.015692     -0.057080
O	      4.01557      4.23339      6.39976         0.029495     -0.015520     -0.018356
O	      6.25250      6.42503      6.24106         0.008542      0.012115     -0.040302
O	      6.16730      4.27060      8.75342        -0.003687     -0.008864     -0.330411
O	      8.30554      6.33477      8.61798         0.016024     -0.000677     -0.186398
O	      2.07519      6.27615      6.55387        -0.012358     -0.116300      0.112734
O	      4.21938      8.45140      6.53009         0.153763      0.066509      0.113930
O	      4.10781      6.47385      8.55786        -0.000001      0.218506      0.029128
O	      6.16882      8.48129      8.68742        -0.076256      0.067217      0.092672
O	      6.25270      6.29511     10.77979        -0.132752      0.050400      0.123228
O	      8.34114      8.37834     10.82592        -0.025944      0.100367     -0.021990
