# total energy = -244.45175223 eV
 
CRYSTAL
PRIMVEC
0.017540 6.359141 6.342637 
6.370183 0.023061 6.336854 
4.247731 4.236981 0.014767 
PRIMCOORD
36 1
Li	      2.12231      2.13732      0.13479        -0.019166      0.030198      0.111694
Li	      6.33120      4.30789      2.15227         0.043488      0.013948     -0.007728
Li	     10.45418      6.44673      8.48482        -0.006469     -0.062967     -0.026468
Li	      8.42382      4.38675      8.49031        -0.037085      0.002454      0.008476
Li	      4.22092      4.28407      4.18380        -0.052501     -0.001378     -0.020136
Li	      8.53730      6.38220      6.49903         0.017371      0.008747     -0.028058
Li	      6.35949      4.24684      6.44836        -0.004589     -0.003900     -0.005917
Li	      8.54119      6.34774     10.36876        -0.031373     -0.026524      0.078685
Li	      6.52677      6.25092      8.40292        -0.004894     -0.014367     -0.061499
Sc	      8.51892     10.56710     10.55703         0.063491      0.026398      0.019185
Ti	     10.54748      4.41975      6.46397        -0.231513      0.288186      0.137326
Mn	      4.26163      2.17001      2.14494         0.054193     -0.023099      0.039725
Mn	      6.30699      6.34355      4.19925         0.020347     -0.010948     -0.049716
Mn	      2.15101      4.22191      6.30204         0.015243     -0.022637     -0.057567
V	      4.15322      6.30204      6.33689         0.029216     -0.050615      0.029957
Cr	      6.41420      8.50600     10.56942        -0.032042      0.042598      0.013724
Cr	      8.55750      8.40658      8.43532        -0.062576      0.093907     -0.007722
Co	      6.39483      4.21500     10.47543        -0.032942     -0.034084     -0.151429
O	      2.34359      2.09498      2.27362         0.009726      0.020407     -0.058513
O	      4.31173      4.31009      1.96387         0.060138      0.031194     -0.218421
O	      4.37488      2.11026      4.12396         0.058643      0.011202     -0.013498
O	      6.44346      4.24723      4.26285        -0.027969     -0.046312     -0.004610
O	      6.42655      2.04499      6.24766         0.062003     -0.234124      0.038208
O	      8.67230      4.28622      6.30195         0.253593     -0.018501      0.089626
O	      2.11008      4.05278      4.19841         0.192675      0.001406     -0.037410
O	      4.17804      6.35282      4.38135        -0.108699      0.046385      0.083672
O	      4.25349      4.35172      6.41369         0.036783      0.079509     -0.098172
O	      6.12822      6.34015      6.19447        -0.141663     -0.073715      0.083628
O	      6.27592      4.22938      8.48336         0.058447     -0.010891      0.071241
O	      8.47122      6.47997      8.41153        -0.062328     -0.144568     -0.016560
O	      2.27476      6.40200      6.38514         0.061279      0.110782      0.021228
O	      4.23349      8.49436      6.45737        -0.055663     -0.022519     -0.003516
O	      4.30072      6.27088      8.38006         0.024737      0.039004     -0.109896
O	      6.32380      8.48922      8.54726        -0.058208     -0.002214     -0.000405
O	      6.39983      6.41160     10.71935         0.071064      0.004781      0.076148
O	      8.43529      8.51368     10.46940        -0.162757     -0.047744      0.074720
