# total energy = -245.81320619 eV
 
CRYSTAL
PRIMVEC
-0.009268 6.433997 6.205103 
6.421763 0.013378 6.182838 
4.285275 4.278178 0.005003 
PRIMCOORD
36 1
Li	      6.37257      4.23839      2.09434        -0.061045      0.021775      0.023386
Li	      4.37423      8.60076      8.31114         0.043163      0.026836      0.014654
Li	      8.51598      4.44210      8.39808        -0.044679      0.005361     -0.004852
Li	      4.19217      4.28878      4.11478        -0.021820      0.039167      0.013030
Li	      8.54818      6.44814      6.27951        -0.032915      0.000064     -0.020711
Li	      6.51628      4.29503     10.19653         0.035943     -0.001659     -0.037507
Li	      8.55369      6.34530     10.21452         0.017409     -0.058937      0.024004
Li	      8.59807      8.45259      8.30513         0.039368     -0.060946      0.026109
Li	      6.53879      6.41808      8.29232         0.108268     -0.002891      0.006327
Sc	      6.46837      8.55746      6.24127        -0.026022     -0.044419      0.022542
Ti	      2.18541      8.57416      6.22604         0.092715      0.059402      0.197972
Mn	      6.39407      0.06325      6.19824        -0.043127     -0.061258     -0.145647
Mn	     10.56809      6.44761      8.31451         0.118629      0.150194      0.075067
Mn	      2.20821      2.20478      4.03708        -0.024038     -0.005233     -0.034335
V	      4.29107      6.37495      6.27318         0.080362      0.048458     -0.027601
Cr	      4.28390      6.43612     10.21457         0.065986     -0.008153     -0.036465
Cr	      6.39067      8.60118     10.23290        -0.014139     -0.045512     -0.059260
Fe	      6.39682      4.31409      6.26525        -0.013467      0.039161     -0.006695
O	      1.93941      2.13820      1.91010        -0.012094     -0.030963     -0.305852
O	      4.24840      4.43692      1.91665        -0.024007     -0.019393     -0.020225
O	      4.36294      2.02388      4.10016         0.045791     -0.002424      0.017691
O	      6.54582      4.22538      4.15503        -0.006075     -0.016715     -0.117951
O	      6.55090      2.10770      6.06194         0.083007     -0.122395     -0.019071
O	      8.61660      4.14070      6.06256         0.068310     -0.146651     -0.030972
O	      2.14418      4.27700      4.20491         0.003164      0.056682      0.026171
O	      4.31552      6.44062      4.39320        -0.013001     -0.002121      0.024202
O	      4.24159      4.41692      6.21463        -0.109313     -0.011052     -0.025671
O	      6.31580      6.45464      6.27166        -0.003668      0.121738     -0.012877
O	      6.39899      4.12663      8.23980        -0.012295     -0.116271      0.143171
O	      8.69136      6.43028      8.25069        -0.080817     -0.002560     -0.001505
O	      2.18958      6.51468      6.17741        -0.032895      0.056785      0.006603
O	      4.17206      8.54531      6.24269        -0.145655      0.079209      0.001605
O	      4.25287      6.45704      8.15339        -0.020890      0.033691      0.050735
O	      6.38251      8.60815      8.28345         0.011101     -0.001296      0.024127
O	      6.32155      6.53102     10.40466        -0.029458      0.018052      0.116429
O	      8.45012      8.68198     10.39394        -0.041792      0.004273      0.093373
