# total energy = -242.06158304 eV
 
CRYSTAL
PRIMVEC
-0.005008 6.378597 6.397556 
6.188614 0.019056 6.373999 
4.137417 4.248239 0.001211 
PRIMCOORD
36 1
Li	      8.21276      4.29235      4.23277         0.084272      0.109643     -0.035558
Li	      6.14723      2.21797      4.21015        -0.127394     -0.089564     -0.036855
Li	      2.05675      4.24683      2.23478         0.016153     -0.029944     -0.004759
Li	      2.11640      2.16945      4.35015         0.032497      0.023788      0.015679
Li	      4.08289      2.21623      6.25844        -0.065502      0.063266     -0.029960
Li	      2.07818      6.30903      4.34348        -0.072472     -0.123151      0.059134
Li	      2.15686      4.25673      6.30575        -0.029017     -0.027861      0.012814
Li	      4.15649      6.23337      6.39724         0.000808      0.073586      0.086881
Li	      4.09086      4.31873      8.49849        -0.020874     -0.003197     -0.174229
Sc	      6.19630      6.42549      8.50432        -0.075593      0.005068      0.097603
Ti	     10.18047      6.47856      8.59737        -0.422973      0.121509      0.127272
Mn	      4.11863      2.14849      2.20165        -0.390632     -0.276597     -0.701587
Mn	      6.17484      4.31022      6.23087        -0.018362      0.298860      0.140217
Mn	      0.10291      4.21506      4.31176        -0.206759      0.325592      0.438992
V	      8.21135      8.52703     12.65183         1.058051      0.011754      1.568778
Cr	      6.15391      0.08136      6.34820        -0.100734     -0.682213     -0.273303
Cr	      6.22616     10.59172      8.56483         0.500034      0.360976     -0.401282
Ni	      4.06534      4.22218      4.27764        -0.019207      0.050952      0.039008
O	      2.03794      2.02658      2.00545        -0.142457     -0.022715      0.256859
O	      4.17479      4.39435      2.04332        -0.088358      0.095674      0.108848
O	      4.10488      2.18282      4.06001         0.034114     -0.041810      0.362923
O	      6.16000      4.23481      4.14574         0.035100     -0.039656      0.142028
O	      6.19715      2.11324      6.44993        -0.386751      0.073675     -0.042790
O	      8.22205      4.13398      6.37524        -0.259803      0.224003     -0.056271
O	      2.01845      4.24541      4.29924         0.464757     -0.038760     -0.070298
O	      4.14704      6.41406      4.10677        -0.007698     -0.200492     -0.305012
O	      4.27854      4.26909      6.29178         0.072682     -0.100203      0.018782
O	      6.22266      6.27491      6.48190         0.059382     -0.046673     -0.171928
O	      6.19536      4.16681      8.48284        -0.053446     -0.330380      0.019557
O	      8.30895      6.39554      8.52468         0.792809      0.080560      0.039952
O	      1.98148      6.49127      6.50854        -0.266876     -0.215502      0.015966
O	      4.10741      8.64618      6.57064        -0.124405      0.255529      0.058655
O	      4.11111      6.36730      8.52469        -0.250007     -0.100316      0.102102
O	      6.15119      8.53323      8.53017         0.064325      0.106823      0.053605
O	      6.20414      6.27118     10.71417        -0.029637      0.210344      0.071262
O	      8.42582      8.45353     10.87557        -0.056026     -0.122567     -1.533088
