# total energy = -248.11444406 eV
 
CRYSTAL
PRIMVEC
-0.006451 6.582821 6.370791 
6.162749 0.030780 6.335217 
4.123564 4.379434 0.005729 
PRIMCOORD
36 1
Li	      2.09329      8.66732      6.39151         0.012307     -0.052086     -0.031419
Li	      6.19035     10.89288      8.46271        -0.041036     -0.018039     -0.007895
Li	      8.18680      4.50185      8.49274         0.014561      0.025045     -0.037665
Li	      6.11948      6.71333      4.35035        -0.038838      0.082999      0.004899
Li	      6.16323      4.51907      6.41771        -0.006791      0.017249      0.033920
Li	      2.10142      6.46864      4.26467         0.047838      0.001113      0.023747
Li	      6.20833      8.70166      6.38099        -0.037786      0.011138     -0.030849
Li	      8.23059      8.67735      8.38556         0.046868     -0.030700      0.000246
Li	      6.19614      6.67491      8.40942        -0.032898      0.031360      0.023209
Sc	      0.12117      6.54341      6.43616        -0.035650     -0.031168      0.079639
Ti	      8.09032      4.34640      4.22139        -0.037262     -0.108126      0.059603
Mn	      6.21895      8.72633     10.57365        -0.093156     -0.024881      0.180422
Mn	      4.02006      4.44066      4.24702         0.181236      0.050528     -0.035155
Mn	      0.08407      4.43505      4.21639         0.077188     -0.151266      0.006157
Mn	      4.13161      6.53663      6.43405        -0.020253     -0.018444     -0.054018
V	      6.25100      2.38587      8.46085         0.031231     -0.209164      0.206257
Cr	      4.05160      2.18790      2.14683        -0.012554      0.188336     -0.054310
Cr	      8.15448      6.62245      6.34421         0.113560     -0.018869      0.025756
O	      1.92841      2.17335      2.06596         0.054607      0.001898     -0.027196
O	      4.08865      4.29937      2.17474        -0.013823     -0.121073     -0.051319
O	      4.02008      2.08719      4.21676        -0.160003     -0.036884      0.011008
O	      6.18332      4.21517      4.23487        -0.045310     -0.050338      0.001457
O	      6.12926      2.14861      6.27877        -0.012215      0.037857     -0.058365
O	      8.24317      4.57033      6.16326        -0.063824      0.085993     -0.096103
O	      2.05918      4.41781      4.21577         0.119959      0.034009      0.029131
O	      4.11953      6.64049      4.08878         0.032544     -0.071947      0.017695
O	      4.09152      4.29100      6.26175        -0.051036     -0.164475     -0.108966
O	      6.19091      6.58169      6.40070         0.241759      0.025245      0.020472
O	      6.18222      4.25295      8.45355         0.040360      0.226132     -0.114410
O	      8.46488      6.59265      8.32527        -0.139257     -0.024319     -0.067288
O	      2.08057      6.60256      6.35222        -0.189688     -0.021476     -0.012746
O	      4.10362      8.82326      6.48385         0.039769      0.142031      0.114199
O	      4.07029      6.77831      8.63397        -0.039191     -0.021360      0.139775
O	      6.04733      8.75722      8.67576         0.045626     -0.018874     -0.146024
O	      6.11904      6.67681     10.61077         0.069277      0.100596     -0.026044
O	      8.31878      9.04537     10.58247        -0.098123      0.131958     -0.017822
