# total energy = -234.68750707 eV
 
CRYSTAL
PRIMVEC
-0.044275 6.361002 6.451204 
6.328258 -0.017370 6.423958 
4.217468 4.221270 -0.010445 
PRIMCOORD
36 1
Li	     10.42920      4.29826      6.53287         0.000881      0.015324      0.052930
Li	      8.28582      2.29313      6.53500        -0.001728      0.006043      0.005158
Li	      6.24955      4.33543      2.38573        -0.006977     -0.045130     -0.037392
Li	      8.19059      4.26964      4.37334         0.061503     -0.040414     -0.020128
Li	      6.26673      2.33920      4.36162        -0.009992     -0.051665     -0.085029
Li	      2.19458      4.10826      1.97944         0.003010     -0.032287     -0.006546
Li	      6.43022      6.06738      4.15311         0.002176      0.030393     -0.033630
Li	      4.47889      4.10906      4.17377         0.013219     -0.046945     -0.061332
Li	      6.45633      4.06936      6.13825        -0.012763      0.018774     -0.016377
Sc	      6.32406      6.29441      8.58463        -0.071763     -0.043068      0.107942
Ti	      2.09410      4.27905      6.47691         0.367064      0.218922      0.029867
V	     10.46578      8.45967     10.74011        -0.176985      0.024161      0.012022
Cr	      0.05760      2.04318      2.12539         0.067403      0.023876      0.019316
Cr	      2.08560      6.33715      4.30816         0.008836      0.028789      0.121572
Fe	      4.31624      1.92178      6.17065        -0.070053      0.245755      0.216767
Fe	      4.22416      6.31153      6.43057        -0.092603     -0.184941     -0.154781
Co	      4.07522      2.26531      2.23797        -0.151694     -0.067145      0.059117
Co	      8.37259      8.49369      8.60227         0.123753      0.007467     -0.091706
O	      6.34262      4.18389      4.27357         0.002370      0.018757     -0.010858
O	      2.03280      2.12592      2.12530        -0.002892      0.033040     -0.008306
O	      4.18319      4.28681      2.15095        -0.015625      0.083597      0.008075
O	      4.23175      2.10287      4.30727         0.023957     -0.003343     -0.338450
O	      6.22435      2.11770      6.57030         0.050062      0.033102      0.030579
O	      8.40787      4.30705      6.42142        -0.022196     -0.104432      0.048315
O	      1.86976      4.32283      4.44340         0.010831      0.017119      0.066387
O	      4.12413      6.44664      4.31877        -0.000879     -0.035529     -0.022001
O	      4.05120      4.26371      6.45575        -0.193672     -0.042369     -0.134979
O	      6.31078      6.47303      6.45993         0.053366      0.045563      0.028628
O	      6.29945      4.17920      8.77412        -0.183194      0.037126     -0.095671
O	      8.45034      6.40143      8.69071         0.030997      0.505127     -0.004415
O	      2.18778      6.22453      6.31017        -0.044155     -0.181636     -0.043129
O	      4.28034      8.36769      6.35752         0.087650      0.012899      0.112419
O	      4.25290      6.32888      8.40435        -0.044223     -0.533822      0.145048
O	      6.23990      8.41241      8.39437         0.160220      0.005905      0.005352
O	      6.40499      6.21749     10.67499         0.004755      0.055693     -0.040875
O	      8.59372      8.35955     10.75297         0.029341     -0.054704      0.136111
