# total energy = -237.89316042 eV
 
CRYSTAL
PRIMVEC
0.016754 6.340852 6.398720 
6.188246 0.026147 6.389356 
4.144439 4.240021 -0.001534 
PRIMCOORD
36 1
Li	      2.07702      2.05274      0.07352         0.043705     -0.002335      0.032694
Li	      2.05961      0.07374      2.07735         0.009245      0.020551     -0.051445
Li	      6.24506      8.44188     10.68102         0.017343     -0.060262      0.011949
Li	      0.08241      2.13496      2.21548        -0.006939     -0.015974      0.027323
Li	      6.10313      6.40653      4.20211         0.035140      0.014188      0.002406
Li	      4.21259      8.41244      4.30665        -0.009186      0.010187     -0.000892
Li	      2.14028      6.28825      4.29934        -0.022016      0.052224      0.017099
Li	      2.01516      4.30293      6.32793         0.053695      0.041760     -0.016291
Li	      6.18952      6.33356      8.57259        -0.029080      0.001725     -0.000192
Sc	      8.21875      6.38026      6.34665        -0.124910     -0.033615     -0.047460
Ti	      8.16130      8.42685      8.64430        -0.299442     -0.020258      0.448105
V	      4.15629      8.46324      8.50310         0.223959     -0.006731      0.082705
Cr	      2.02979      4.22262      2.18710         0.150259      0.075287      0.082432
Cr	      4.13812      4.30629      4.22242         0.057819      0.026298     -0.109769
Fe	      0.21112      6.36129      6.32031        -0.135787     -0.033525      0.072274
Fe	      4.14703      6.32544     10.61390        -0.015412      0.152228     -0.180217
Fe	      6.19695      4.22253      6.39574         0.010631     -0.045647     -0.066445
Co	      4.13397      6.42428      6.28162        -0.045338      0.222103      0.005334
O	      2.19570      2.25724      2.14062        -0.292230     -0.110914      0.000956
O	      4.07601      4.22229      2.18544         0.016641      0.125304     -0.057925
O	      4.15759      2.11994      4.19897        -0.028706      0.078680      0.071390
O	      6.23489      4.22769      4.37899        -0.102838     -0.025187     -0.034524
O	      6.15980      2.10684      6.40084        -0.008563      0.134992      0.000745
O	      8.24445      4.26903      6.41876         0.065381     -0.050545      0.103113
O	      2.15347      4.25373      4.13795         0.023092      0.006116     -0.059094
O	      4.14760      6.26044      4.27871        -0.019340     -0.137131     -0.091455
O	      4.15000      4.21200      6.35788        -0.047636      0.035069      0.016935
O	      6.17718      6.24920      6.40401         0.089166     -0.022755     -0.003742
O	      6.15938      4.22567      8.41574        -0.018121      0.002934      0.064194
O	      8.23354      6.46584      8.46548        -0.016331     -0.000312      0.009388
O	      2.07976      6.39909      6.41165         0.148146     -0.029757      0.021185
O	      4.20314      8.58012      6.53244        -0.047781     -0.164960      0.088561
O	      4.12437      6.28154      8.59462        -0.023898     -0.056255     -0.020795
O	      6.28034      8.46481      8.53057         0.308458     -0.021916      0.026229
O	      6.08539      6.34807     10.77774         0.084970     -0.021109     -0.065164
O	      8.28901      8.54541     10.48762        -0.044095     -0.140458     -0.379606
