# total energy = -234.77069700 eV
 
CRYSTAL
PRIMVEC
0.015595 6.200027 6.362338 
6.298332 0.023372 6.354338 
4.217790 4.147088 -0.003342 
PRIMCOORD
36 1
Li	     10.34987      4.16437      6.32039         0.049969     -0.063152     -0.044605
Li	      8.46143      2.24488      6.28637         0.078632     -0.002419     -0.008070
Li	      8.47349      4.09498      4.37941         0.029140      0.015586     -0.057953
Li	      8.37380      4.19234      8.36672        -0.040095      0.000755     -0.016351
Li	      4.22858      4.14829      4.21647         0.002878      0.017931      0.010457
Li	      6.43074      4.13897      6.36987         0.006823      0.012386     -0.036511
Li	      8.37036      6.25653     10.55212         0.039212     -0.057983     -0.021560
Li	      4.29352      4.16313      8.53367         0.041908      0.012285      0.019275
Li	      6.32396      6.11274      8.56867        -0.010229     -0.057714      0.022304
Sc	      2.09650      4.17182      6.31540        -0.132728     -0.007322     -0.027314
Ti	      6.21596      2.17781      8.37379        -0.217290      0.284135      0.012406
V	      6.32374      6.16319      4.23159        -0.267157      0.325044      0.109178
Cr	      4.17286      2.12243      2.16490         0.153617     -0.019366     -0.212843
Cr	      8.42028      6.15984      6.33320         0.084639      0.101843      0.172124
Fe	      6.31998      4.16602      2.15113         0.052817     -0.210890     -0.237433
Fe	      6.51486      8.18160     10.63742        -0.265156      0.234841      0.048279
Fe	      4.21802      6.15404      6.38279        -0.024050      0.132232      0.078166
Cu	      6.22335      4.27563     10.56891        -0.008178      0.015224     -0.043766
O	      2.09410      2.04471      2.14918         0.105827     -0.023596      0.078066
O	      4.30601      4.18317      2.13161        -0.052057     -0.016229     -0.029966
O	      4.14267      2.10921      4.24133        -0.041094      0.035785      0.043919
O	      6.32035      4.15995      4.15434        -0.036669     -0.226048      0.002113
O	      6.23067      2.07856      6.37495        -0.017309      0.030865      0.069471
O	      8.40987      4.25623      6.34430        -0.018189     -0.021768      0.011597
O	      1.98735      4.04344      4.28029         0.110740      0.201074     -0.054205
O	      4.28564      6.25628      4.19086        -0.120312     -0.162734      0.092686
O	      4.16414      4.16857      6.34819        -0.005565     -0.161459     -0.027227
O	      6.32528      6.20048      6.32568         0.073152     -0.050643      0.008731
O	      6.31320      3.99532      8.40837         0.032470     -0.229984     -0.089995
O	      8.56071      6.21610      8.36050         0.144672      0.034059     -0.024446
O	      2.23919      6.19265      6.44066        -0.142062      0.078093      0.034073
O	      4.23888      8.21056      6.54407         0.001406      0.069168      0.064094
O	      4.15889      6.30327      8.40286         0.057823     -0.088549      0.072745
O	      6.20734      8.32961      8.56021         0.044350      0.007210     -0.066512
O	      6.35225      6.27573     10.57546         0.013982     -0.138428      0.053045
O	      8.39578      8.29990     10.59097         0.274081     -0.070235     -0.003970
