# total energy = -235.78572995 eV
 
CRYSTAL
PRIMVEC
0.026500 6.318171 6.282285 
6.347311 0.007795 6.301134 
4.234367 4.227577 0.002542 
PRIMCOORD
36 1
Li	      4.21540      2.07519      2.15323        -0.026786     -0.017961      0.000539
Li	      4.15901      0.10511      4.17598        -0.064123      0.071792      0.032410
Li	      2.07652      4.22456      2.18342        -0.032040     -0.039162     -0.013478
Li	      6.40967      6.35627      4.33754         0.008228      0.009549      0.019766
Li	      8.30283      6.37554      6.26874         0.019297      0.008644     -0.000686
Li	      6.29882      4.40969      6.30319        -0.016066     -0.019724      0.009951
Li	      0.10788      4.16463      4.17169         0.055859     -0.059384      0.008091
Li	      6.39896      8.27527      6.26875         0.012230      0.002155      0.004669
Li	      4.42763      6.28668      6.27461        -0.000679      0.005496      0.004402
Sc	      6.26259      2.15896      4.23082        -0.028332      0.067727     -0.009311
Ti	      4.18997     10.40631      6.33790        -0.274142     -0.317548      0.049505
V	      8.51564      8.47793     12.56126         0.121791      0.056804     -0.036158
Cr	      2.15541      6.28249      4.19974         0.055161     -0.002521      0.009174
Cr	      6.34080      6.29357      8.32063        -0.034247     -0.021382      0.003449
Fe	      2.27071      6.32217      8.37810        -0.049266     -0.007081     -0.099671
Fe	      6.34674      2.22968      8.38705         0.007324     -0.060154     -0.000070
Fe	      4.15564      4.18593      4.37475         0.064015      0.075667     -0.184289
Ni	      4.26632      4.22352      8.29053        -0.001479      0.010019      0.022532
O	      2.04179      2.03193      1.98264         0.030109      0.025633     -0.012293
O	      4.34321      4.30091      1.97354        -0.082925     -0.079677     -0.093429
O	      4.24576      2.20449      4.17634        -0.003069     -0.098929     -0.002295
O	      6.29660      4.21786      4.06456         0.008628      0.028330      0.114805
O	      6.38214      2.02099      6.33881         0.043245     -0.035764     -0.042749
O	      8.61223      4.14817      6.27423         0.277176      0.095313     -0.018553
O	      2.20422      4.30147      4.17381        -0.100256     -0.012296      0.014800
O	      4.15986      6.25990      4.06724         0.005964      0.046331      0.093932
O	      4.26664      4.22973      6.24520         0.017337      0.018698      0.071225
O	      6.36987      6.32549      6.41798         0.000594      0.019354      0.008330
O	      6.33324      4.21552      8.38304         0.136359      0.133429      0.030792
O	      8.45167      6.36802      8.48105        -0.008577     -0.152795     -0.007286
O	      2.05152      6.40191      6.26991        -0.027495     -0.060600     -0.030700
O	      4.24079      8.55457      6.29244        -0.047783      0.302173     -0.019896
O	      4.25600      6.29291      8.39034         0.112218      0.132601      0.030674
O	      6.42092      8.42654      8.40801        -0.151998     -0.037615      0.004109
O	      6.44916      6.34384     10.53160         0.010051     -0.021650      0.016148
O	      8.45656      8.34442     10.55621        -0.036324     -0.065474      0.021559
