# total energy = -239.79692527 eV
 
CRYSTAL
PRIMVEC
0.005049 6.346990 6.244856 
6.314010 -0.005397 6.255764 
4.205476 4.233720 0.000260 
PRIMCOORD
36 1
Li	      0.06716      6.30484      6.20761         0.012687     -0.021228      0.082662
Li	      6.28702     10.55348      8.29786         0.005866      0.015341     -0.007142
Li	      4.33244      6.38012     10.42504        -0.005148      0.066422      0.003581
Li	      6.28694      8.35708     10.42076         0.004557      0.004785      0.000400
Li	     10.46041      6.34070      8.33300        -0.017651      0.010182     -0.042805
Li	      2.16814      4.24090      2.07882         0.036869     -0.022617     -0.004969
Li	      2.05855      4.34054      6.24144        -0.028289      0.005190      0.003065
Li	      4.14720      6.39115      6.24812        -0.006199      0.050613      0.049417
Li	      6.32540      6.34083      8.39617        -0.031524      0.007785     -0.023817
Sc	      2.06169      2.08019      0.05984         0.216984      0.031446     -0.136734
Ti	      4.09813      4.38812      8.34821         0.171277      0.206777      0.158115
V	      6.26814      6.35334      4.14790         0.266348     -0.202629     -0.073709
Cr	      8.37348      6.33005     10.39686         0.200380      0.107421     -0.033053
Cr	      6.29760      4.24527      6.29260         0.059134     -0.047925      0.199696
Fe	      4.32907      8.45350      8.26837         0.024734     -0.123793     -0.203525
Fe	      4.23128      4.22427      4.07217        -0.050253     -0.079226      0.077423
Fe	      8.45222      6.26265      6.35548        -0.002047     -0.026648     -0.054132
Fe	      6.37173      4.27724     10.38297        -0.405340      0.300471      0.201436
O	      2.21432      2.08818      2.12387        -0.062734      0.033345      0.094538
O	      4.25182      4.09402      2.13811         0.012452      0.103478     -0.057068
O	      4.14483      2.16315      4.15955         0.006329     -0.038550      0.053254
O	      6.19649      4.28624      4.28631         0.045903      0.072391     -0.063639
O	      6.25880      2.20436      6.28100        -0.055885     -0.008042      0.006434
O	      8.32268      4.26686      6.27089        -0.002592     -0.025281     -0.007052
O	      2.20771      4.28480      4.16881         0.057199     -0.085879     -0.034784
O	      4.23699      6.27338      4.14001        -0.096253      0.302223     -0.038068
O	      4.25807      4.14670      6.33137        -0.024535      0.029646     -0.042287
O	      6.42296      6.26293      6.14908        -0.093709      0.021071      0.053633
O	      6.14210      4.24024      8.31706        -0.131669     -0.031750     -0.618854
O	      8.40238      6.44660      8.32750        -0.031854     -0.014776      0.072043
O	      2.10468      6.41606      6.11777         0.040017     -0.042129      0.037915
O	      4.17708      8.43694      6.29898         0.010639      0.008408      0.402501
O	      4.19651      6.26691      8.34986         0.002142     -0.148653      0.012450
O	      6.37287      8.47263      8.30814         0.111159     -0.028601      0.032524
O	      6.42715      6.33754     10.42675        -0.141735     -0.399868     -0.018755
O	      8.39491      8.38094     10.33717        -0.097260     -0.029399     -0.080696
