# total energy = -232.93234218 eV
 
CRYSTAL
PRIMVEC
-0.015991 6.369203 6.222254 
6.365532 -0.002387 6.209000 
4.245652 4.239108 -0.003452 
PRIMCOORD
36 1
Li	      6.25911      0.15561      6.12655        -0.016271     -0.047120      0.005833
Li	      8.31526      2.21044      6.16359         0.021473     -0.003845     -0.000725
Li	      2.05047      6.43656      8.16230        -0.017730      0.020650      0.037910
Li	      8.61680     10.42213     10.55488         0.018197     -0.055155     -0.025160
Li	      6.40766      2.11166      8.07972         0.008916      0.002078      0.067002
Li	      4.38698      1.97978      6.20382        -0.007010     -0.027419     -0.033625
Li	      6.54380      4.06043      6.27855         0.021251      0.013683     -0.041226
Li	     10.44551      8.58129     10.36027         0.008768      0.013107      0.006712
Li	      4.21837      6.36899      6.22566        -0.014143      0.021741      0.017917
Sc	      4.12617      2.03767      2.07330         0.062876     -0.086055      0.105089
Ti	      6.24232      8.52698      6.20108        -0.320286      0.044608      0.127289
V	      4.41093      4.29534      4.23391         0.484838     -0.120938      0.005648
Cr	      8.44149      4.23651      8.21339        -0.045623     -0.005490     -0.145136
Cr	      8.46460      6.38842     10.36500        -0.029339      0.127910     -0.025417
Cr	      6.35250      6.32918      8.25197        -0.048577      0.056376      0.093845
Co	      6.43261      2.09028      4.27088        -0.187706      0.079923     -0.025814
Ni	      6.32848      6.40556      4.19866         0.018452     -0.119402     -0.013603
Ni	      4.31965      4.26279      8.26059        -0.034997     -0.005394     -0.002299
O	      2.10430      2.19601      2.15894         0.050641      0.019070     -0.082202
O	      4.12961      4.19028      2.29018        -0.013127      0.048718     -0.064897
O	      4.22550      2.35748      4.15112         0.036939     -0.099716      0.111403
O	      6.18680      4.32501      4.14774        -0.193461     -0.093928      0.002324
O	      6.36475      2.11555      6.17413         0.100106     -0.013934     -0.450250
O	      8.51982      4.21392      6.29622         0.001690      0.005244      0.074150
O	      2.18102      4.28162      4.17739        -0.020242      0.099101      0.050989
O	      4.17816      6.15193      4.14541        -0.085782      0.037072     -0.014635
O	      4.15479      4.25757      6.06475        -0.087096      0.029158     -0.020398
O	      6.35642      6.54513      6.20810        -0.020631      0.146933      0.140174
O	      6.40590      4.35031      8.26480         0.080470     -0.070219     -0.031549
O	      8.39084      6.31873      8.34213         0.040819     -0.063204     -0.046676
O	      2.14805      6.21374      6.16522        -0.037893     -0.174158     -0.001602
O	      4.37344      8.48547      6.23717         0.358034      0.007043     -0.015655
O	      4.31210      6.34836      8.32744         0.042999      0.123373     -0.050698
O	      6.36088      8.43494      8.19665         0.002818      0.028510      0.027604
O	      6.46305      6.36009     10.25458         0.056625      0.128635     -0.045253
O	      8.48509      8.36493     10.28081        -0.235994     -0.066957      0.262931
