# total energy = -235.55600045 eV
 
CRYSTAL
PRIMVEC
0.000208 6.239805 6.296400 
6.342886 -0.004698 6.301100 
4.222831 4.157358 0.002778 
PRIMCOORD
36 1
Li	      4.20399      2.07733      2.32883        -0.080785      0.009012     -0.012301
Li	      4.31954      6.31962     10.40919        -0.006539     -0.010045     -0.001257
Li	      6.17810      8.22760     10.42246         0.001314     -0.005354      0.026099
Li	      2.07258      4.25572      2.24076        -0.087171      0.015787      0.001977
Li	      2.24791      2.14132      4.22065        -0.018699     -0.001707     -0.029581
Li	      4.17719      3.99404      4.19427        -0.008385      0.001212      0.046198
Li	      6.22605      4.27543      6.20855        -0.042985     -0.015697      0.002558
Li	      8.37284      6.18910     10.39532         0.013386      0.015289      0.035842
Li	      8.48825      8.28967      8.43015         0.065192      0.038855     -0.021066
Sc	      4.20664      6.32428      2.26330         0.102578     -0.143987     -0.021861
Ti	      8.40864      2.17382      6.18961         0.078700      0.070270     -0.086919
V	      6.39797      4.06987      2.28705         0.137371      0.126654     -0.274896
Cr	      0.02499      6.23408      6.27223        -0.069357     -0.068847      0.135885
Cr	      4.19260      2.07360      6.24764         0.194213      0.149339     -0.111389
Cr	      2.12000      4.13779      6.23458         0.073332      0.136784      0.021207
Co	      0.02831      4.18194      4.21547        -0.001446     -0.104921      0.042934
Co	      4.27109      6.14583      6.25211         0.201619      0.438833     -0.080260
Cu	      6.40482      6.26605      8.50906        -0.020772     -0.009694     -0.020238
O	      2.11483      1.91322      1.92046        -0.044173      0.093687     -0.040665
O	      4.41264      4.17551      2.02649        -0.135858      0.029623     -0.026942
O	      4.22979      2.03850      4.30297        -0.006613     -0.050447     -0.011626
O	      6.33448      4.13141      4.00968        -0.008838      0.031016      0.410790
O	      6.43360      2.05367      6.27261         0.005175     -0.053056     -0.002725
O	      8.53814      4.08332      6.33391        -0.013345     -0.081817      0.028441
O	      1.96559      4.16539      4.28046        -0.041333      0.019023     -0.098059
O	      4.23683      6.35703      4.26953        -0.022013      0.032110      0.251100
O	      4.11908      4.09347      6.24468        -0.039243     -0.496136      0.003344
O	      6.40924      6.29885      6.29074        -0.347332     -0.087930      0.082856
O	      6.36543      4.17073      8.58228        -0.014174      0.131419     -0.006762
O	      8.57474      6.23106      8.27147        -0.136045     -0.019551      0.066380
O	      2.03479      6.24033      6.34033         0.197624      0.006526     -0.158551
O	      4.20768      8.36009      6.20351        -0.015842      0.199966     -0.064889
O	      3.97268      6.24337      8.27978         0.127403     -0.063508     -0.011293
O	      6.29181      8.47777      8.29959        -0.036599     -0.297386     -0.032101
O	      6.34489      6.12435     10.60329         0.009564     -0.016981     -0.181846
O	      8.58176      8.29789     10.64675        -0.009927     -0.018342      0.139617
