# total energy = -235.30386923 eV
 
CRYSTAL
PRIMVEC
0.027870 6.371498 6.200262 
6.345175 0.037437 6.190415 
4.268140 4.278824 -0.013028 
PRIMCOORD
36 1
Li	      6.31516      6.39950     12.21772        -0.034359      0.018288      0.101910
Li	      4.29321      8.43860      8.27157         0.027808     -0.057333     -0.037921
Li	      4.43357      6.50366     10.37786         0.004743      0.024445      0.005739
Li	      6.33403      8.31449     10.33281        -0.068559      0.015745      0.060487
Li	      8.42181      4.28778      8.23355        -0.010592     -0.034695      0.020561
Li	      2.20610      2.07666      4.10832         0.036559      0.073946     -0.009830
Li	      6.43660      4.53380     10.32731         0.088400     -0.012439      0.061403
Li	      8.23373      6.40349     10.37512         0.041070     -0.125800      0.024359
Li	      6.36652      6.39909      8.44854        -0.020945      0.019339     -0.095216
Sc	      4.28069      4.15233      4.07876        -0.236964     -0.049193     -0.054825
Ti	      8.52143      8.55761      8.44773         0.049757      0.024042      0.604968
V	      4.30008      6.43766      2.13356         0.068429     -0.049860      0.099366
Cr	      2.17332      6.40787      8.25789        -0.016208     -0.023433     -0.025488
Cr	      8.48812      6.35221      6.17600        -0.118582     -0.019492     -0.074356
Cr	      4.30051      6.40869      6.13776         0.011053      0.344810     -0.078612
Co	      6.29535      8.52038      6.09659         0.350831      0.668625      0.568572
Co	      8.56809      8.64095     12.30062        -0.052449      0.072722      0.113382
Ni	      6.43406      4.29943      6.13482        -0.009894      0.001562     -0.064237
O	      6.36595      6.41787     10.32004        -0.048161      0.113390     -0.007659
O	      2.00703      2.08403      2.01628        -0.073490     -0.148953     -0.152332
O	      4.36504      4.41260      2.03893         0.054623      0.082548      0.032587
O	      4.22385      2.15156      4.19145         0.079989      0.001135      0.053041
O	      6.33077      4.27655      4.05571         0.066524      0.007260     -0.133767
O	      6.27048      2.21344      6.36296        -0.067009     -0.039782      0.012863
O	      8.42763      4.37814      6.24532         0.173515     -0.081001     -0.046749
O	      2.16824      4.27968      4.27964        -0.155686     -0.190943      0.016186
O	      4.28016      6.36994      4.00871         0.023441     -0.044963     -0.010869
O	      4.29329      4.27381      6.20940        -0.182637      0.005225      0.023905
O	      6.38321      6.42626      6.20823         0.079059      0.087840     -0.051941
O	      6.23798      4.18991      8.24732        -0.148784      0.033147      0.088333
O	      8.59434      6.55769      8.19152        -0.025826      0.133812      0.016193
O	      2.29619      6.40481      6.23876         0.113586     -0.297746     -0.085136
O	      4.30516      8.38059      6.22921         0.187889     -0.212393     -0.115455
O	      4.20853      6.27840      8.14131         0.008989     -0.164484      0.020698
O	      6.54012      8.64446      8.09004        -0.186057     -0.202615     -0.281858
O	      8.48086      8.55570     10.25450        -0.010061      0.027246     -0.598305
