# total energy = -230.09492205 eV
 
CRYSTAL
PRIMVEC
-0.025318 6.415142 6.182137 
6.296629 -0.007785 6.163974 
4.179770 4.247384 0.012879 
PRIMCOORD
36 1
Li	      2.17202      8.46887      6.16513         0.010510     -0.049293     -0.003500
Li	      2.12963      6.44886      8.13472         0.000441      0.026424     -0.037237
Li	      8.31112      4.33994      8.22002         0.021955     -0.006235      0.004109
Li	      8.28664      6.44536      6.25343         0.069331      0.017936      0.002607
Li	     10.43755      8.53164     10.30739        -0.033664     -0.030994      0.071619
Li	      6.24883      8.57854      6.25838        -0.067131      0.111997      0.017521
Li	      4.15002      6.39732      6.26927        -0.003187      0.013508     -0.003050
Li	      4.21818      4.26562      8.17632         0.017500     -0.019237      0.022130
Li	      6.32993      6.27553      8.17309         0.004626     -0.025616     -0.012261
Sc	     10.41460      6.38869      8.21510         0.058069     -0.017082      0.021751
Ti	      2.07635      2.33270      4.16124        -0.040942      0.273748     -0.057711
V	      6.29052      8.53288     10.19210         0.072215     -0.016239      0.068218
Cr	      4.14299     10.57210      6.22523        -0.010948      0.104073     -0.011413
Cr	      4.18523      6.37075     10.22732        -0.022227     -0.035533     -0.124340
Cr	      6.27154      4.26712      6.19586         0.087120     -0.039081     -0.075111
Cu	      4.17605      4.29866      4.14021        -0.095089      0.051280     -0.034643
Cu	      2.06167      6.37969      4.14919         0.111093     -0.003697      0.140336
Ni	      4.11634      8.52435      8.20308        -0.073131     -0.082340     -0.107490
O	      2.08657      2.07693      2.21970        -0.114929      0.046224      0.204571
O	      4.17607      4.23768      2.06927        -0.013549      0.021807      0.010046
O	      4.18282      1.99995      4.09311         0.076973     -0.111565      0.148102
O	      6.37998      4.14220      4.16806        -0.015749      0.097803      0.016995
O	      6.24855      2.13142      6.08047         0.010145      0.004456     -0.117128
O	      8.42870      4.23615      6.04767        -0.354014     -0.020008      0.029741
O	      2.12810      4.15541      4.18647        -0.113784     -0.285160      0.004510
O	      4.33053      6.42216      4.13397         0.220422      0.182190      0.196370
O	      4.31910      4.26524      6.06305        -0.024639     -0.036901      0.246023
O	      6.33575      6.24521      6.06205        -0.091138      0.017852      0.001261
O	      6.29770      4.20060      8.13124        -0.033224      0.106045      0.214767
O	      8.40149      6.36137      8.38733        -0.180448      0.079786     -0.172149
O	      1.90432      6.42121      6.07825         0.191382     -0.017594      0.011495
O	      4.13441      8.66243      6.22030         0.129117     -0.119303     -0.294887
O	      4.17599      6.46212      8.33548         0.035391     -0.095814     -0.049113
O	      6.19999      8.53844      8.42436         0.159167     -0.000004     -0.211512
O	      6.17363      6.53157     10.36897         0.012092     -0.066444     -0.080040
O	      8.21049      8.64575     10.27781         0.000244     -0.076986     -0.040586
