# total energy = -229.19596956 eV
 
CRYSTAL
PRIMVEC
-0.043902 6.494056 6.142022 
6.380908 -0.070053 6.168938 
4.231010 4.323196 -0.024079 
PRIMCOORD
36 1
Li	      8.51659      4.26072      4.14495         0.007710      0.008433      0.042703
Li	      4.20626      6.37933      2.25199        -0.006942     -0.082168     -0.112144
Li	      8.44254      4.41200      8.35033         0.001959      0.074017     -0.104718
Li	      1.86160      2.43380      4.07078         0.090926     -0.007395     -0.005807
Li	      4.00846      4.47889      4.09521         0.010870     -0.055737      0.019803
Li	      0.20517      4.10672      4.10970        -0.068542      0.021280     -0.052461
Li	      2.23071      6.24435      4.04777        -0.079102     -0.007377     -0.021576
Li	      2.06371      4.38780      5.84579         0.009655      0.013875      0.059143
Li	      4.30951      4.23359      8.19691         0.016369     -0.037285      0.032241
Sc	      4.14092      2.16848      2.07435        -0.063165      0.119498      0.186514
Ti	      6.35023      4.37409      6.22322         0.001999     -0.077749      0.034865
V	      6.43987      8.61603     10.26059         0.248529     -0.164715      0.102117
Cr	      6.31090     10.76024      8.14806         0.049778      0.043950      0.257233
Cr	      4.26599      2.15391      6.16754         0.110225     -0.096526     -0.042877
Cr	      6.37341      6.44705      8.22175         0.052046      0.072473      0.072658
Cu	      4.17573     10.72125      6.08870        -0.196812     -0.115060     -0.163835
Cu	      2.11689      8.57366      6.16230        -0.012845      0.060762     -0.077968
Cu	      4.13683      6.48425      6.01304        -0.048719     -0.068393      0.214284
O	      4.19162      6.46270      4.13858        -0.005493     -0.009977      0.040266
O	      2.11501      1.94529      1.98463        -0.064508     -0.258930      0.255933
O	      4.35708      4.23762      1.94343        -0.026896     -0.046168      0.193866
O	      4.48511      2.10469      4.14835        -0.077288      0.003993     -0.015564
O	      6.43147      4.05969      4.07016         0.015450      0.093913     -0.052520
O	      6.32423      2.31182      6.07812        -0.063839      0.305081      0.145844
O	      8.41727      4.42278      6.15311        -0.040585      0.245079     -0.005589
O	      2.11406      4.28445      4.02304        -0.046463      0.003942      0.009379
O	      4.44375      4.22792      6.12805         0.091237     -0.043917     -0.012891
O	      6.48936      6.33561      6.18080         0.007303     -0.026941      0.000847
O	      6.32308      4.44923      8.10892         0.033023      0.079282     -0.153676
O	      8.32787      6.51984      8.11058         0.050245      0.015729      0.048295
O	      1.92104      6.38159      6.22070         0.100354     -0.270471     -0.109698
O	      4.13959      8.51631      6.13030         0.010103      0.033173     -0.168570
O	      4.20980      6.49343      8.09824        -0.020699      0.022741     -0.107077
O	      6.32371      8.60312      8.35229        -0.054681      0.028332     -0.263405
O	      6.30972      6.70279     10.24437        -0.016449      0.082064     -0.059665
O	      8.22399      8.62711     10.39338        -0.014750      0.041193     -0.185948
