# total energy = -231.41758505 eV
 
CRYSTAL
PRIMVEC
0.012938 6.249708 6.294388 
6.260461 -0.008146 6.315305 
4.178602 4.185395 -0.010123 
PRIMCOORD
36 1
Li	      4.16934      2.10021      2.08469        -0.017387      0.000325     -0.013010
Li	      6.23748      2.07891      4.25066        -0.002098      0.012060      0.021899
Li	      4.16331      6.23350      2.14120         0.032810     -0.032128      0.037250
Li	      6.22263      6.23021      4.29839         0.021498     -0.017345      0.009515
Li	      4.22620      4.18584      4.27472         0.016720     -0.018724      0.004199
Li	      6.13179      4.19795      6.28634        -0.006378      0.007740     -0.033096
Li	      4.14213      8.24919      4.28591        -0.003394      0.015212     -0.010491
Li	      4.15550      4.18398      8.34856         0.013651      0.004749      0.040301
Li	      6.29508      6.30849      8.30658        -0.017960      0.055988      0.035152
Sc	      4.26073      6.25869     10.42666        -0.004766      0.025548     -0.058562
Ti	      6.21780     10.26241      8.47257         0.004058     -0.354951      0.443888
V	      1.91006      4.10481      2.21760         0.132859      0.050389     -0.078025
Cr	      0.04194      6.24703      6.28736        -0.059051      0.026224      0.006948
Cr	      4.18744      2.14322      6.30874        -0.027329     -0.037313     -0.006783
Cr	      8.40269      6.31979     10.45200        -0.006908     -0.008674     -0.084881
Ni	      8.33241      2.11715      6.27223        -0.000323      0.041092      0.032047
Ni	      4.26800      6.23973      6.26004        -0.000174     -0.012707      0.100912
Ni	      6.28172      8.28957      6.30907        -0.012581      0.023878     -0.128222
O	      2.12275      2.30745      2.03580        -0.022590     -0.088726      0.092038
O	      4.27240      4.19948      1.99493         0.120167     -0.003919     -0.010975
O	      4.17688      2.02234      4.34886         0.000516      0.029889     -0.102605
O	      6.28761      4.19623      4.01654         0.009872     -0.083654     -0.329774
O	      6.23761      2.00926      6.33098        -0.077436      0.023970     -0.008677
O	      8.43784      4.21815      6.39536        -0.002450      0.115003      0.033813
O	      2.13198      4.23768      3.99611        -0.079015      0.009780      0.081463
O	      4.08699      6.26251      4.24581         0.031455     -0.008763     -0.141086
O	      4.13991      4.12395      6.34189         0.157405     -0.014818     -0.017066
O	      6.32217      6.29529      6.32191         0.116960     -0.205697     -0.015866
O	      6.46776      4.16026      8.38838        -0.207262      0.015211      0.024494
O	      8.38902      6.06404      8.41428        -0.044440      0.043277     -0.014976
O	      2.06867      6.27500      6.25366        -0.046921     -0.073541      0.047638
O	      4.20430      8.39562      6.28652        -0.029073      0.129771     -0.023156
O	      4.02357      6.28255      8.37032        -0.056281     -0.052596      0.090761
O	      6.24857      8.43902      8.37277         0.037483      0.411905      0.084030
O	      6.33475      6.23660     10.56669         0.029393     -0.015836     -0.001164
O	      8.36582      8.30996     10.50774        -0.001030     -0.012622     -0.107932
