# total energy = -230.11077117 eV
 
CRYSTAL
PRIMVEC
0.007565 6.226457 6.327504 
6.279766 -0.028113 6.362865 
4.171872 4.160215 -0.004368 
PRIMCOORD
36 1
Li	      4.32526     10.23250      6.47985        -0.002962      0.009249      0.107507
Li	      6.20241     10.35049      8.37224         0.010481     -0.005964      0.051748
Li	      4.15623      2.21193      2.13090         0.009433     -0.073907      0.006087
Li	      2.17074      4.08108      2.22392        -0.071605     -0.001800      0.017017
Li	      2.10623      2.15853      4.12995        -0.027135      0.042961     -0.040577
Li	      4.11540      4.10318      4.21606        -0.018627     -0.038826      0.032122
Li	      2.03971      4.26859      6.31049         0.009300     -0.094273     -0.070781
Li	      4.13659      6.18878      6.27070         0.041134      0.010571     -0.017799
Li	      4.14742      4.17519      8.38900        -0.007712      0.027431     -0.106936
Sc	      2.22326      8.23294      6.39966         0.331390      0.129498      0.205346
Sc	      4.17171      6.12439      2.18600         0.054738      0.154824     -0.114047
Cr	      6.28985      8.28483     10.54181        -0.068670     -0.056886      0.068896
Cr	      8.32495      6.24179      6.34336         0.038607     -0.007692     -0.040530
Cr	      6.22580      4.18521      6.31864        -0.022897     -0.015073      0.196401
Cr	      6.21748      6.24050      8.43830        -0.108954     -0.110082     -0.042669
Co	      4.22086      8.30711      4.26981         0.511424      0.071002     -0.132363
Cu	      4.18477      6.21678     10.53267        -0.026894      0.068352     -0.040863
Ni	      2.11327      6.16933      4.27176        -0.031910      0.009523     -0.078423
O	      4.37791      6.20586      8.54936         0.014579      0.030580     -0.114086
O	      2.03582      2.07324      2.07035        -0.007585      0.002296      0.139705
O	      4.15176      4.19003      2.18644         0.034871     -0.066712      0.013168
O	      4.29657      1.99018      4.34973        -0.042364      0.101830     -0.124693
O	      6.36048      4.02097      4.31475        -0.121976      0.097073     -0.135435
O	      6.22459      2.13574      6.30957         0.033438     -0.091715     -0.042070
O	      8.26231      4.20243      6.23401         0.024375     -0.018524      0.143839
O	      1.90286      4.19193      4.20187        -0.203051     -0.170302     -0.059639
O	      4.14809      6.39236      4.19907         0.045344     -0.159784      0.132186
O	      4.26462      4.04640      6.30260        -0.078958      0.129232     -0.045343
O	      6.33160      6.16723      6.45495        -0.059220      0.110070     -0.130324
O	      6.25959      4.26337      8.37480        -0.016681     -0.016372     -0.176530
O	      8.25187      6.21333      8.38393         0.015666      0.010473      0.059116
O	      2.09558      6.25597      6.28452         0.014047     -0.104675      0.116392
O	      4.19856      8.33051      6.23869        -0.318527     -0.006264      0.399009
O	      6.30205      8.12894      8.59725         0.024160      0.069141     -0.140177
O	      6.28702      6.19203     10.45548         0.038005      0.044882      0.082187
O	      8.40421      8.29776     10.57974        -0.015262     -0.080138     -0.117440
