# total energy = -230.40478466 eV
 
CRYSTAL
PRIMVEC
0.009222 6.229093 6.517567 
6.329355 0.014874 6.512082 
4.197331 4.127176 0.032687 
PRIMCOORD
36 1
Li	      6.32052      6.25577     12.99849        -0.016973     -0.016103      0.014831
Li	      6.28750      4.12443      2.25285        -0.003443     -0.034880      0.067290
Li	      6.24365      2.09181      4.49178        -0.013610      0.025048      0.046586
Li	      2.13941      4.12353      2.21070        -0.030805      0.006451      0.021091
Li	      6.30575      6.21996      4.59896         0.026168     -0.020452     -0.007330
Li	      4.24089      4.17408      4.39942         0.040794     -0.013726      0.023503
Li	      4.21574      2.09314      6.32331         0.004941      0.029238     -0.021155
Li	      6.32946      4.16155      6.46728         0.033545     -0.049415     -0.017723
Li	      4.26169      6.24019      6.33842         0.017189     -0.001907     -0.018227
Sc	      4.16408      2.20604      2.25567         0.070027      0.006471     -0.004326
Sc	      6.37983      6.16322      8.60115        -0.000693     -0.007101      0.015048
Cr	      2.06023      2.01535      0.03125        -0.000568     -0.107386      0.104117
Cr	      8.28058      4.13288      4.43792        -0.151327     -0.028899     -0.008888
Cr	      0.02980      2.05298      2.16760        -0.000028      0.012394      0.028068
Cr	      2.09767      6.21205      4.39470         0.045693     -0.135412     -0.039418
Co	      4.24346      4.19086      8.39601         0.049853      0.008562     -0.049493
Cu	      4.24308      8.26231      4.41679         0.064712     -0.076547     -0.059385
Cu	      2.11192      4.16270      6.47912         0.086347     -0.001425      0.082893
O	      2.04875      4.22548      4.50844         0.029245      0.089074     -0.187720
O	      4.28553      4.18488      6.62441        -0.065432      0.052063     -0.144281
O	      2.04470      2.08058      2.03444        -0.020387     -0.021009     -0.081407
O	      4.19040      4.19271      2.27485        -0.055470     -0.044494      0.053364
O	      4.21871      1.94758      4.33664         0.002502     -0.029527     -0.068220
O	      6.49131      4.11789      4.38963         0.151871     -0.014715      0.021914
O	      6.48805      2.05983      6.63697         0.049941      0.033590      0.065904
O	      8.45796      4.01195      6.31618         0.013219     -0.061038     -0.098615
O	      4.12127      6.27510      4.25761        -0.020348     -0.025994     -0.039407
O	      6.31165      6.28996      6.58615        -0.002571     -0.029192     -0.021782
O	      6.30348      4.09691      8.59323         0.030452      0.052102     -0.117876
O	      8.48638      6.27292      8.83340        -0.002361      0.008789      0.065845
O	      2.10197      6.29400      6.39467         0.009225      0.193500     -0.079883
O	      3.97316      8.27491      6.68728        -0.173025      0.027239      0.041550
O	      4.27613      6.17962      8.93815         0.038248      0.019458      0.065563
O	      6.31874      8.29817      8.57521        -0.078691     -0.041271      0.136699
O	      6.34698      6.15691     10.81101        -0.033195      0.188221      0.026543
O	      8.45011      8.28677     10.98667        -0.095044      0.008293      0.184329
