# total energy = -230.29745580 eV
 
CRYSTAL
PRIMVEC
-0.009789 6.329923 6.179681 
6.345632 0.013249 6.156349 
4.238385 4.212470 0.000818 
PRIMCOORD
36 1
Li	      6.27082      4.15495      2.12028        -0.064615      0.015425      0.031428
Li	      4.34552      8.41875      8.26645        -0.076604      0.005875      0.051337
Li	      6.27001      2.21494      4.07755        -0.020690      0.056697     -0.019516
Li	      4.29960      4.14429      4.13259        -0.005970     -0.020567      0.010724
Li	      4.33344      2.19470      6.10263         0.031726      0.005831     -0.009942
Li	      6.26080      4.18198      6.12884        -0.038860      0.020418     -0.027602
Li	      2.12429      6.32828      4.11413        -0.030705     -0.002226     -0.017458
Li	      2.09345      4.26739      6.11924         0.068333      0.019888      0.029341
Li	      8.46973      8.40510      8.25070        -0.053432     -0.044862     -0.030470
Sc	      2.09816      8.39043      6.14671        -0.032269      0.010855      0.072244
Sc	      8.48181      4.28886      8.25388        -0.002020      0.113678     -0.016608
Cr	      4.19142      0.02616      4.07373         0.030267      0.051727      0.050511
Cr	      6.38375      6.29958      4.13604         0.017641      0.008822      0.068169
Cr	      4.19237      6.19663      6.19951        -0.043511     -0.426546     -0.134723
Cr	      6.34727      6.48985      8.20608         0.227232      0.330522      0.038083
Co	     10.51149      6.36207      8.20403         0.115110     -0.024812      0.092584
Ni	      0.04177      6.30251      6.16689         0.079650     -0.036706     -0.101769
Ni	      4.22825      8.41753      4.12607        -0.006171      0.000527     -0.068666
O	      2.04874      2.16001      2.12974         0.107857     -0.033264     -0.099075
O	      4.22751      4.38053      2.02504         0.012743      0.122048      0.123458
O	      4.12191      2.03749      4.11683         0.048020     -0.015165      0.046519
O	      6.46134      4.29669      4.10730        -0.055540     -0.003210      0.005104
O	      6.36038      2.06250      6.25459        -0.014135      0.131516      0.065641
O	      8.55604      4.18640      6.10245        -0.084544     -0.028229     -0.001456
O	      2.08156      4.11358      4.12010         0.076272      0.020805      0.053798
O	      4.31214      6.34714      4.15970         0.035064     -0.080314     -0.171704
O	      4.21486      4.41200      6.15443         0.025942      0.247434      0.060693
O	      6.15079      6.32254      6.24637        -0.058035      0.052875     -0.214530
O	      6.35865      4.19532      8.21970        -0.034718     -0.080461     -0.149575
O	      8.36617      6.35087      8.22323        -0.287266     -0.131749     -0.077077
O	      2.23390      6.32739      6.17657         0.097206      0.035083      0.047482
O	      4.19815      8.36211      6.18508         0.095005     -0.114781      0.141838
O	      4.38210      6.34937      8.19038         0.042242     -0.078202      0.018988
O	      6.36400      8.27303      8.23139        -0.098294     -0.218012     -0.005063
O	      6.26461      6.28913     10.15243        -0.029917      0.118864      0.166515
O	      8.46289      8.54442     10.28664        -0.073015     -0.029782     -0.029224
