# total energy = -232.74583094 eV
 
CRYSTAL
PRIMVEC
-0.023081 6.290129 6.251799 
6.333905 -0.022931 6.251632 
4.209234 4.180128 -0.002024 
PRIMCOORD
36 1
Li	      4.20058      4.19672      0.05225        -0.038854      0.023051     -0.039727
Li	     10.40109      6.20969      8.37589        -0.104541      0.044708      0.044489
Li	      8.53259      4.29389      8.29935        -0.054247      0.082497     -0.009145
Li	      4.11450      4.25651      4.15306        -0.008931      0.002889      0.108281
Li	      8.49813      6.22544      6.34628         0.061425     -0.055776      0.004606
Li	      6.32143      4.14322      6.31025         0.002001     -0.031054     -0.012652
Li	      2.20020      6.15350      4.16858         0.010135     -0.011161      0.012416
Li	      2.08899      4.27984      6.17300         0.021449      0.028444     -0.072598
Li	      4.15152      6.24513      6.22580        -0.027617      0.011981     -0.036596
Sc	      8.37790      2.05499      6.28972        -0.027762     -0.005156     -0.115700
Sc	      6.26838      6.30921      4.28641        -0.044304      0.031213      0.286937
Cr	      6.24319     10.41175      8.29098         0.122135      0.024794     -0.019312
Cr	      4.23791      0.02067      4.20853         0.002938     -0.079350      0.074342
Cr	      0.03941      4.18396      4.19248         0.053229      0.015369     -0.115573
Cr	      6.35651      6.26753      8.25844        -0.005075     -0.083566     -0.038812
Co	      6.32438      2.06753      4.18966         0.069695     -0.016704      0.203698
Co	      4.24762      4.10247      8.15691         0.111620     -0.065301     -0.406824
Cu	      4.19456      8.41585      8.25943        -0.017017     -0.139430     -0.015739
O	      4.20564      4.20229      6.39176        -0.004129     -0.007305      0.264427
O	      2.05406      1.93604      2.11417         0.348873      0.033832      0.047003
O	      4.32678      4.06332      2.10973        -0.077704      0.107723      0.026610
O	      4.33204      2.00748      4.08352         0.045764      0.083090     -0.064446
O	      6.41433      4.07020      4.09480        -0.033560     -0.010257     -0.028598
O	      6.32186      2.07052      6.07311        -0.047894     -0.000691     -0.131169
O	      8.42972      4.13235      6.15636        -0.005046     -0.027823      0.066168
O	      2.00513      4.15231      4.14536         0.042641     -0.027397      0.010063
O	      4.24057      6.38894      4.16461         0.027114     -0.050448     -0.050553
O	      6.33403      6.26240      6.29857        -0.014199      0.006711     -0.061852
O	      6.24176      4.28336      8.43906        -0.045845     -0.051031      0.012536
O	      8.32513      6.31252      8.37056         0.115107      0.110360     -0.031050
O	      2.08936      6.28716      6.34663        -0.036846      0.039266      0.025223
O	      4.14242      8.38976      6.18777        -0.054818      0.043894      0.178164
O	      4.20822      6.32034      8.40513        -0.030121     -0.044265     -0.051404
O	      6.40414      8.35116      8.47261        -0.326322      0.011494     -0.031389
O	      6.21914      6.32138     10.31618         0.069120      0.011447     -0.006656
O	      8.39557      8.46236     10.36555        -0.098414     -0.006044     -0.025167
