# total energy = -233.29330800 eV
 
CRYSTAL
PRIMVEC
-0.005683 6.235092 6.206202 
6.269090 0.015448 6.185238 
4.198450 4.161838 -0.008827 
PRIMCOORD
36 1
Li	      2.16657      8.26711      6.17267         0.087033     -0.032776     -0.069376
Li	      4.20088      8.27678      8.23751         0.094976     -0.110590     -0.020800
Li	      2.09206      2.16391      4.13404        -0.008019      0.108486     -0.007149
Li	      4.12006      4.13684      4.16418        -0.140675     -0.042691      0.031093
Li	      4.14623      2.12381      6.17592        -0.020752     -0.001373     -0.071938
Li	      4.20522      8.25481      4.18020         0.098015     -0.089059      0.027394
Li	      2.12009      6.25646      4.13728         0.053062     -0.063291      0.032742
Li	      4.18317      6.29525      6.18869        -0.040597      0.082856      0.074829
Li	      6.27901      6.30030      8.21900        -0.064480      0.111479     -0.011119
Sc	      4.24696      6.25762     10.32683         0.048624      0.012757      0.094918
Sc	      6.14464      4.26274      6.18726         0.015443      0.019373     -0.068570
Cr	      2.08372      0.03520      2.04511        -0.178719      0.076065      0.016585
Cr	      6.27736      8.29128     10.33564        -0.025700     -0.048110      0.008343
Cr	      2.11548      4.15464      2.14398         0.045833     -0.086064     -0.054414
Cr	      2.05852      4.12554      6.12758        -0.034849      0.067427      0.037862
Co	      0.00601      6.23458      6.20846        -0.037751      0.015954     -0.031844
Co	      4.19261      6.23328      2.13206         0.052865     -0.114554     -0.135451
Ni	      8.36340      8.29569      8.27339         0.109341     -0.029771     -0.016160
O	      1.91429      2.07844      2.05725        -0.046383     -0.004554     -0.032314
O	      4.18607      4.29324      1.94678         0.013365     -0.013009      0.081193
O	      4.29990      2.05635      4.09057        -0.005503      0.044822     -0.018454
O	      6.30135      4.09800      4.09128        -0.016193      0.019075      0.004546
O	      6.28236      2.02729      6.20558        -0.020984      0.032295      0.059276
O	      8.43675      4.15444      6.26960        -0.016729      0.031369     -0.002445
O	      2.11916      4.15034      4.12386         0.014866     -0.009118     -0.016202
O	      4.20287      6.20829      3.89833         0.049175     -0.044598      0.003574
O	      4.13067      4.17663      6.22886        -0.047776      0.012562     -0.072034
O	      6.25115      6.26383      6.20508        -0.019675      0.054608      0.062025
O	      6.34345      4.04211      8.27279        -0.005111      0.012418      0.031492
O	      8.56778      6.18049      8.24696         0.049561      0.048678     -0.059825
O	      1.94638      6.16382      6.27574         0.001996      0.046163      0.016301
O	      4.27165      8.47206      6.20766        -0.029453     -0.021058      0.040727
O	      4.06168      6.23286      8.25913         0.005714      0.084375     -0.013344
O	      6.29945      8.40558      8.25813        -0.080871     -0.091774      0.016845
O	      6.29673      6.30324     10.43310         0.031419     -0.011100     -0.068881
O	      8.28343      8.33105     10.29648         0.068931     -0.067273      0.130575
