# total energy = -100.96500610 eV
 
CRYSTAL
PRIMVEC
-0.000010 2.245492 2.235637 
3.778979 0.000035 -0.000060 
0.000051 9.693004 -9.654919 
PRIMCOORD
16 1
Li	      3.77858      2.55429      1.86035         0.000816      0.019655     -0.018748
Li	      1.88908      2.42292     -0.19431        -0.000115     -0.010527     -0.008224
Li	      1.88907      4.32144     -2.17152        -0.000073      0.018766     -0.008361
Li	      1.88908      7.17007     -4.84655        -0.000534     -0.011035      0.013363
Ti	      3.77836      6.96461     -2.66824         0.000665     -0.338416      0.058083
Ti	      3.77871      9.39848     -5.05686        -0.000244     -0.094028     -0.204729
Ni	      3.77858      4.31951      0.10013        -0.000035      0.065881     -0.079828
Ni	      1.88947      9.85169     -7.65621         0.000079     -0.064711      0.057784
O	      3.77854      7.50786     -4.64069         0.000749      0.096759     -0.013277
O	      1.88922      7.25244     -6.97926        -0.001500     -0.031942     -0.014575
O	      3.77861      5.16185     -2.96773        -0.000390      0.365220     -0.072213
O	      1.88904      5.11996     -4.97298         0.000130     -0.033831      0.000801
O	      3.77858      2.33274     -0.15437         0.000151     -0.114942      0.126764
O	      1.88909      4.72051     -0.32292        -0.000494      0.059038     -0.057976
O	      3.77851      9.19737     -6.90100         0.001101     -0.078559      0.352930
O	      1.88917     11.69288     -7.26243        -0.000306      0.152671     -0.131793
