# total energy = -235.83108164 eV
 
CRYSTAL
PRIMVEC
-0.006720 6.315095 6.254299 
6.354236 -0.005837 6.253845 
4.250157 4.223726 -0.017670 
PRIMCOORD
36 1
Li	      1.99822      2.14038      0.19002        -0.043656     -0.015838     -0.077818
Li	      6.31187      4.22734      2.03464         0.016919     -0.012343      0.070967
Li	      4.15913      2.21418      2.04570        -0.028405     -0.050610     -0.029535
Li	      6.26620      2.19536      4.25711         0.038713     -0.010808     -0.044220
Li	      6.33029      2.05466      8.26536        -0.029129      0.015422     -0.010341
Li	      2.22686      4.17193      1.98693        -0.020395      0.003210      0.017400
Li	      4.24315      4.19980      4.07196        -0.033543      0.044158     -0.034687
Li	      4.39362      2.06588      6.24845        -0.005392      0.000061      0.073272
Li	      2.23748      6.23322      4.15306         0.001750     -0.057110     -0.058295
Sc	      2.11127      2.09257      4.01584         0.087936     -0.105985     -0.043821
Sc	      6.44372      6.37052      8.35201        -0.038324     -0.052304      0.006605
Cr	      8.47000      4.24933      4.24715        -0.116530      0.068378      0.008326
Cr	      4.26076      8.43450      4.17358        -0.062609      0.056976     -0.146289
Cr	      4.15408      6.33952      6.26665         0.024394      0.014025      0.044093
Cr	      8.46053      8.41664      8.30826         0.100929      0.040103      0.045196
Co	      0.09818      0.11155      0.16369         0.026501      0.210015      0.051662
Co	      6.38318      4.04413      6.26893        -0.012701     -0.007450      0.022281
Co	      2.11057      4.22142      6.24530        -0.021448     -0.044378      0.023772
O	      2.10474      2.13608      2.09188         0.019949      0.008503      0.020309
O	      4.23767      4.20838      1.93138        -0.032517     -0.012241     -0.094819
O	      4.23235      1.90138      4.10850        -0.040368     -0.109741      0.044782
O	      6.46874      4.21754      4.23819         0.107369      0.059659     -0.130276
O	      6.35374      2.06734      6.21551         0.090140     -0.267964      0.064193
O	      8.51019      4.20057      6.08213         0.037935      0.031426     -0.001030
O	      2.04340      4.18964      4.29387         0.012847      0.032256      0.090187
O	      4.23233      6.41684      4.27953         0.026472      0.004383     -0.003609
O	      4.11598      4.30582      6.29168        -0.078612      0.062432      0.000702
O	      6.21500      6.38454      6.26343        -0.033134      0.164315     -0.007137
O	      6.26796      4.23467      8.36640        -0.051439      0.090556      0.128973
O	      8.44013      6.41580      8.33672        -0.020416      0.025433      0.003777
O	      2.12480      6.16665      6.23162         0.001526     -0.071868     -0.000142
O	      4.38347      8.39885      6.18277         0.106830     -0.048398      0.027986
O	      4.25261      6.23624      8.36157         0.048815     -0.028011     -0.037260
O	      6.44965      8.43133      8.20048        -0.017090     -0.003991     -0.107027
O	      6.25792      6.24605     10.49013        -0.056589     -0.051256      0.057142
O	      8.59495      8.60760     10.30635        -0.006729      0.018986      0.024681
