# total energy = -227.08574809 eV
 
CRYSTAL
PRIMVEC
0.003557 6.331432 6.252714 
6.239989 0.015629 6.240717 
4.185209 4.238054 -0.014057 
PRIMCOORD
36 1
Li	      4.16628     10.46950      6.22520        -0.004015     -0.005001      0.030732
Li	      8.36376      2.27330      6.22794         0.035736      0.002437     -0.060620
Li	      4.10027      2.19245      2.08080         0.029835      0.012912     -0.062076
Li	      8.38984      4.30133      4.26092         0.019670     -0.058779     -0.004402
Li	      8.39046      4.21355      8.21210        -0.027206      0.048676      0.009505
Li	      8.29830      6.25295      6.19618         0.054719     -0.024036      0.047966
Li	      8.23798      6.36038     10.49790        -0.017407      0.020420     -0.000049
Li	      2.03651      4.25517      6.20278        -0.021673      0.051872      0.039109
Li	      6.27569      6.37687      8.39376         0.017829      0.006283      0.042451
Sc	      6.21462     10.55090      8.28498        -0.034212     -0.216162     -0.043008
Sc	      4.18449      6.39561      6.20450        -0.189903      0.201611      0.054258
Cr	      6.22600      2.05326      4.22093         0.268712     -0.323649      0.028831
Cr	      6.23317      2.13845      8.28666        -0.121301      0.066890     -0.068154
Cr	      6.30867      4.37812     10.43452        -0.141288     -0.200235     -0.049874
Cr	      8.35336      8.40484      8.33087         0.062723     -0.004312      0.142720
Cu	      2.18846      2.10833      4.16125        -0.104627      0.154991     -0.010484
Ni	      4.09062      4.18104      4.15205        -0.106227      0.073893      0.055923
Ni	      6.32096      4.24808      6.22339        -0.023719     -0.175403      0.088181
O	      8.18553      4.23889      6.24640         0.181000      0.017400      0.023379
O	      2.02555      2.07629      2.23059         0.087168      0.097136      0.077697
O	      4.13714      4.35778      2.09320         0.036151      0.003440     -0.060388
O	      4.23421      2.16350      4.11986        -0.280019     -0.142882     -0.017619
O	      6.17104      4.04883      4.17590         0.075973      0.216046     -0.136331
O	      6.30669      2.25822      6.25578        -0.006928     -0.145768      0.095705
O	      1.97765      4.25949      4.16771         0.256519     -0.229888     -0.026644
O	      4.18708      6.42591      4.07889         0.167091     -0.016470     -0.048021
O	      4.30429      4.25744      6.32234        -0.122466      0.000800      0.043810
O	      6.29852      6.22792      6.06901         0.079272      0.195842     -0.098662
O	      6.17498      4.18522      8.39311         0.012490     -0.026337     -0.061463
O	      8.43819      6.56020      8.28597        -0.015600     -0.013639     -0.078519
O	      2.13943      6.31522      6.28873         0.056433      0.029281      0.087973
O	      4.19049      8.44905      6.13702        -0.004065     -0.090597      0.189850
O	      4.15177      6.16654      8.27101         0.032348      0.020648     -0.080790
O	      6.36304      8.41301      8.43876        -0.045090      0.030417     -0.048693
O	      6.23962      6.31496     10.43898        -0.042592      0.433374     -0.014458
O	      8.38195      8.47832     10.24042        -0.165332     -0.011210     -0.087833
