# total energy = -234.18118687 eV
 
CRYSTAL
PRIMVEC
-0.026874 6.260306 6.253758 
6.385268 -0.037920 6.264942 
4.256190 4.180060 -0.024343 
PRIMCOORD
36 1
Li	      4.08308      2.13483      2.18902        -0.063017      0.077584      0.019358
Li	     10.56986      6.26386      8.38148         0.034196      0.007666      0.016289
Li	      6.33891      6.19443      4.21047        -0.021003      0.015572     -0.013250
Li	      4.33283      4.20925      4.07928        -0.001924      0.028221      0.008461
Li	      8.40242      6.30001      6.29209        -0.020675     -0.002053     -0.045732
Li	      6.24675      4.29745      6.22515        -0.008526     -0.040011     -0.012753
Li	      8.56682      6.19917     10.26972         0.051144     -0.006929      0.010534
Li	      4.38319      6.13573      6.31148        -0.007405      0.011913      0.015749
Li	      6.41241      6.19692      8.24703         0.008506     -0.008483     -0.018819
Sc	      0.00952      0.07738      0.08668         0.033685      0.014707      0.102497
Sc	      6.47280      8.20126      6.23992         0.065810     -0.027732     -0.004999
Cr	      2.14973      2.08670      0.01314        -0.015778      0.031161      0.057503
Cr	      4.21274      6.23261     10.38569        -0.031227      0.106342      0.013569
Cr	      8.47159      4.22546      8.35919         0.019853     -0.022678     -0.055564
Cr	      4.23886      8.21970      4.10764         0.043478     -0.230806     -0.049428
Fe	      6.27757      2.07760      4.09563         0.110405     -0.094164     -0.099017
Co	      8.51704      8.25808      8.30789         0.070696     -0.042362     -0.099040
Cu	      2.16129      0.06081      2.12183        -0.121388      0.044624     -0.051879
O	      4.21748      6.43277      4.18602         0.004252      0.220011     -0.006150
O	      2.09857      2.24458      1.96048        -0.023683      0.094693     -0.040671
O	      4.10421      4.21589      2.09108        -0.095288     -0.024797     -0.015624
O	      4.36952      1.96021      4.10510        -0.134746     -0.065987      0.017871
O	      6.45846      4.08988      4.03235         0.026489      0.091380      0.080002
O	      6.55067      2.07034      6.07788         0.014305     -0.036752      0.052487
O	      8.53205      4.08180      6.24496        -0.010031     -0.031735     -0.039392
O	      1.95967      4.20213      4.11201        -0.041553      0.026060      0.051860
O	      4.24172      4.14052      6.39890        -0.020180     -0.010178      0.004942
O	      6.36600      6.27411      6.20908         0.034776      0.031145      0.020317
O	      6.34444      4.16567      8.51946        -0.090040      0.003858      0.021749
O	      8.54984      6.26027      8.31114        -0.031494      0.066832      0.033627
O	      2.07388      6.32125      6.39805         0.006905     -0.005514     -0.091849
O	      4.20375      8.39603      6.11758        -0.022546      0.024118     -0.036818
O	      4.21902      6.02025      8.42621         0.143904     -0.129217      0.030479
O	      6.57644      8.23512      8.37564         0.075102     -0.094466      0.027253
O	      6.23942      6.17604     10.47301         0.012538     -0.035441      0.005163
O	      8.54798      8.33541     10.39214         0.004458      0.013421      0.091274
