# total energy = -235.01016421 eV
 
CRYSTAL
PRIMVEC
0.031069 6.330542 6.267143 
6.275816 0.034260 6.264098 
4.188061 4.222601 0.018558 
PRIMCOORD
36 1
Li	     10.42079     10.54957     12.45316        -0.068346     -0.024079     -0.004256
Li	      8.44732      8.52209     12.47336         0.022169      0.005074      0.010604
Li	      2.07257      0.04014      2.04349        -0.031290      0.023242     -0.016073
Li	      8.42595      4.20241      4.32247         0.020149      0.043582      0.032212
Li	      4.11790      4.25040      4.21012         0.006129     -0.059836     -0.028172
Li	      8.39367      6.23862      6.27282        -0.003547     -0.052016     -0.009392
Li	      0.03764      4.29593      4.24079         0.022639     -0.016466     -0.006342
Li	      2.07357      6.22970      4.22376        -0.004983     -0.032746     -0.018231
Li	      2.12035      4.27827      6.11022        -0.048294     -0.038640     -0.047130
Sc	      4.15351      2.20305      2.06168        -0.058147      0.107179      0.037208
Sc	      6.31162      2.14203      4.26526        -0.202853     -0.011306      0.140328
Cr	      6.30565      6.36010      4.22824         0.038749      0.073060     -0.008397
Cr	      6.32570      4.24321      6.29041         0.390057      0.030239     -0.143159
Cr	      4.07476      6.36811      6.23237         0.213101      0.390389     -0.202890
Cr	      6.33224      6.36137      8.39967         0.100765     -0.038160     -0.045971
Fe	      4.15311      6.22327      2.13131         0.088758      0.105244      0.080446
Co	      4.20052      4.27399      8.37914        -0.043813      0.019199      0.344198
Ni	      2.10381      4.22261      2.12158        -0.049848      0.054438      0.005757
O	      2.03280      2.11305      2.19280         0.073442     -0.186770     -0.058244
O	      4.17773      4.27360      2.01966         0.207267     -0.172860      0.024352
O	      4.15449      2.14707      4.14975         0.108335     -0.028190     -0.007327
O	      6.28623      4.28446      4.29984        -0.008186     -0.055829      0.030358
O	      6.29512      2.22151      6.35970        -0.033410     -0.001661     -0.125802
O	      8.30225      4.23105      6.37490        -0.200092     -0.017800     -0.248591
O	      2.12667      4.10178      4.12456        -0.032314      0.055634      0.243253
O	      4.27992      6.30458      4.18287        -0.104300     -0.009191      0.195779
O	      4.29703      4.41445      6.43849        -0.201523     -0.118500     -0.060119
O	      6.20851      6.27283      6.28708        -0.014373      0.047644      0.091072
O	      6.26220      4.29231      8.32641         0.042838      0.064564      0.025329
O	      8.39164      6.40527      8.35509        -0.154052     -0.043436      0.010631
O	      2.30911      6.30115      6.24121        -0.166408      0.006326      0.033920
O	      4.22354      8.27405      6.27780         0.007310     -0.202436     -0.037093
O	      4.28976      6.37415      8.24734         0.034904      0.089241     -0.026007
O	      6.31361      8.38222      8.38720        -0.070808     -0.035848     -0.035790
O	      6.30904      6.41069     10.36664        -0.022749     -0.009009     -0.023436
O	      8.36585      8.51065     10.28325         0.142723      0.039723     -0.153025
