# total energy = -236.27817277 eV
 
CRYSTAL
PRIMVEC
0.038746 6.175962 6.267492 
6.393985 0.035247 6.269988 
4.292742 4.148967 -0.006019 
PRIMCOORD
36 1
Li	      2.17121      2.03543      0.20020         0.023471     -0.026464     -0.093296
Li	      2.26530      6.28897      8.26767         0.012645     -0.029753     -0.000421
Li	      4.24679      8.21415      8.29056        -0.056928      0.023359      0.001539
Li	      0.13019      2.05767      2.04828        -0.046780      0.018657      0.018981
Li	      6.42575      6.19649      4.16234        -0.004281     -0.016954      0.043045
Li	      8.45083      6.25250      6.28606         0.023261      0.122356      0.025700
Li	      6.39629      8.14239      6.42075         0.020654     -0.002502     -0.026172
Li	      4.42641      6.23064      6.35882         0.036915     -0.107743      0.015906
Li	      6.38483      6.27396      8.15120         0.023117     -0.052770      0.023017
Sc	      4.36999      8.17117      4.20688        -0.136359     -0.012109     -0.005009
Sc	      8.54492      6.26780     10.49847         0.031193      0.227919     -0.135547
Cr	      4.24502      0.07476      4.15868        -0.037776     -0.132642     -0.186027
Cr	      8.55120      4.11703      8.29960         0.044240      0.081786     -0.146797
Cr	      4.29857      4.11702      4.17415         0.129300     -0.038932      0.184011
Cr	      6.41859      4.18397      6.29234        -0.391347     -0.014901     -0.105702
Fe	      4.37573      4.17471      0.14889        -0.165414      0.081904     -0.084072
Co	      6.43337      8.27164     10.42290         0.229462      0.034534     -0.045146
Co	      8.42916      8.28765      8.22489         0.056881      0.011099      0.134692
O	      2.15355      2.16165      2.12878         0.039252      0.086187      0.071458
O	      4.17439      4.17846      2.11857        -0.055141      0.025032      0.004662
O	      4.47755      2.08466      4.12172         0.001361      0.028647     -0.051060
O	      6.41766      4.03847      4.24543         0.047634      0.015681     -0.041833
O	      6.40299      2.07418      6.11128         0.010014     -0.022878     -0.057781
O	      8.50561      4.18719      6.24332         0.142024     -0.055647      0.066238
O	      2.21497      4.14819      4.07590        -0.035208     -0.071349     -0.087769
O	      4.21385      6.14918      4.20032         0.034954      0.055647     -0.043298
O	      4.38080      4.14460      6.20481         0.199813     -0.055606     -0.301808
O	      6.42693      6.12143      6.19293         0.058701      0.062908      0.022469
O	      6.52428      4.15693      8.32034        -0.228531      0.020558     -0.018887
O	      8.55566      6.34086      8.38906        -0.075972     -0.056783      0.046708
O	      2.03725      6.19322      6.25201         0.103325     -0.008963      0.067336
O	      4.32480      8.36767      6.19513         0.029806     -0.082540      0.054785
O	      4.31697      6.05845      8.46122        -0.218384     -0.198238      0.066029
O	      6.51090      8.28486      8.50065         0.351405      0.009776      0.329875
O	      6.34524      6.25852     10.51574        -0.059456      0.080758     -0.001627
O	      8.55611      8.36490     10.39740        -0.137854     -0.000035      0.255799
