# total energy = -232.12892896 eV
 
CRYSTAL
PRIMVEC
0.006823 6.248232 6.303340 
6.372155 -0.014901 6.325636 
4.223703 4.155827 0.014343 
PRIMCOORD
36 1
Li	      2.13271      8.22990      6.24962         0.009759     -0.013457      0.031431
Li	      6.44367      8.31597     10.50728        -0.012086     -0.018203      0.053258
Li	      6.23009      6.19752      4.27330        -0.038377      0.076541      0.003432
Li	      4.23246      4.32781      4.24842        -0.079847      0.020637      0.005571
Li	      4.13783      8.21529      4.31095         0.061168      0.003534     -0.020053
Li	      8.60052      6.36349     10.50332         0.049822     -0.007809     -0.068830
Li	      4.20499      6.26398      6.10148        -0.011585      0.038674     -0.113261
Li	      8.46218      8.28497      8.49446        -0.000374     -0.013378     -0.015591
Li	      6.41756      6.22140      8.46242         0.064218     -0.045866      0.002101
Sc	      4.27590      8.26654      8.49821        -0.004358      0.024463      0.081391
Sc	      2.03627      4.17498      2.27988        -0.120587      0.146555      0.198365
Cr	      6.41438      6.25125     12.56967         0.075373     -0.091828      0.025810
Cr	      8.52293     10.24880     10.55237         0.050719     -0.000776     -0.008744
Cr	      4.23908      2.09003      6.28544         0.011326     -0.089569      0.040208
Cr	      2.14863      4.17093      6.23275         0.004550     -0.055391     -0.001790
Fe	      6.23340      4.19526      6.31124         0.017048      0.124605      0.121169
Cu	      2.16204      6.25346      8.41910         0.001092     -0.036150     -0.016127
Ni	      4.20240      6.25751      2.18314        -0.042182      0.060249      0.009433
O	      4.21181      6.25952      4.15808         0.030841      0.023189      0.113625
O	      2.14093      2.02068      2.08678         0.113532      0.054165     -0.043534
O	      4.22275      4.15188      2.03451         0.137141     -0.116488     -0.056098
O	      4.27756      1.93242      4.27481         0.003869     -0.096383     -0.292078
O	      6.54524      4.14679      4.37987         0.034914     -0.053770     -0.387977
O	      6.26701      2.06986      6.36806         0.126012     -0.039324     -0.132940
O	      8.54197      4.19513      6.31189        -0.045054     -0.120181     -0.076299
O	      2.12382      4.16434      4.26616        -0.003140      0.003017     -0.203086
O	      4.24754      4.09250      6.24179        -0.065352      0.091649      0.055920
O	      6.45109      6.24610      6.33089        -0.156164      0.013077      0.013016
O	      6.39827      4.13230      8.25745         0.012787      0.160898      0.102248
O	      8.48460      6.20003      8.31392        -0.097495     -0.068172      0.192542
O	      2.02700      6.17173      6.25988         0.059316      0.150116      0.274208
O	      4.36201      8.39526      6.35534        -0.134683      0.002629      0.033238
O	      4.20544      6.21186      8.57262        -0.040651     -0.083477      0.050478
O	      6.34831      8.42513      8.29594         0.045288     -0.102715      0.071738
O	      6.18688      6.25885     10.60604        -0.043464     -0.066977     -0.046321
O	      8.46915      8.43888     10.57420        -0.013377      0.125916      0.003546
