# total energy = -231.02561589 eV
 
CRYSTAL
PRIMVEC
0.022200 6.304784 6.292177 
6.325294 0.009545 6.304858 
4.197599 4.192385 0.025824 
PRIMCOORD
36 1
Li	     10.46959      4.22240      6.39661        -0.055270      0.080907     -0.024916
Li	      2.07709      2.13644      0.14871        -0.062832      0.048406     -0.036416
Li	      4.23905      8.48099      8.32971        -0.035116      0.059684     -0.046704
Li	      6.36491      2.08620      8.22768         0.003435      0.004066     -0.149311
Li	      4.24202      4.15218      4.18246        -0.088997     -0.028615     -0.034505
Li	      4.30282      2.09019      6.34946         0.078270      0.015304     -0.048540
Li	      6.30703      4.18454      6.38907        -0.003148     -0.021795      0.046275
Li	      6.31605      8.35659      6.47457         0.008366     -0.054031      0.040022
Li	      6.35323      6.30408      8.33397         0.057260     -0.042623     -0.058805
Sc	      2.16987      2.01738      4.15340         0.089091     -0.031562      0.067874
Sc	      2.15245      6.26304      4.22932         0.027182     -0.066819      0.030951
Cr	      6.24438      2.09111      4.24959        -0.031069     -0.075025      0.059771
Cr	      8.47928      4.22518      8.27442        -0.054510      0.147471      0.102907
Cr	      6.34644      4.24467     10.51616        -0.001929      0.019661      0.110925
Cr	      4.23207      4.18949      8.34761         0.193533     -0.197297     -0.054156
Fe	      4.25931      6.33366      6.40436         0.006399     -0.051549     -0.102909
Cu	      6.18611      4.18379      2.05312        -0.151883     -0.040028     -0.058794
Cu	      8.42794      4.19375      4.29947         0.034537      0.051574      0.180670
O	      4.12253      4.22890      2.06728         0.269474     -0.053361      0.054472
O	      8.37253      4.23230      6.36039        -0.194949      0.013260     -0.277390
O	      2.10520      2.26098      2.12849        -0.005063     -0.136744     -0.016673
O	      4.26348      1.98773      4.22388         0.015867      0.129181     -0.077507
O	      6.19078      4.11151      4.06432         0.077516      0.084140     -0.068879
O	      6.32872      2.15507      6.10742         0.009178      0.027195      0.269339
O	      2.04208      4.19503      4.08019         0.059555      0.057438     -0.028677
O	      4.23307      6.40426      4.27291        -0.101109     -0.058195     -0.025232
O	      4.21353      4.37106      6.40238        -0.032315     -0.228142      0.021573
O	      6.13645      6.31463      6.26949         0.386246     -0.028967      0.069355
O	      6.32314      4.25025      8.52135        -0.063398      0.074666     -0.080865
O	      8.46880      6.32675      8.44683        -0.024478      0.015919      0.012325
O	      2.28837      6.30148      6.35217        -0.229344     -0.013729      0.052162
O	      4.23995      8.25842      6.22578         0.000704      0.317241      0.080673
O	      4.15700      6.21187      8.42788        -0.044104      0.120465      0.210220
O	      6.44369      8.31450      8.56434        -0.075971      0.073547     -0.187679
O	      6.43604      6.30121     10.60303        -0.085365     -0.072732     -0.011780
O	      8.45877      8.44298     10.44124         0.024236     -0.138912     -0.019776
