# total energy = -239.51005292 eV
 
CRYSTAL
PRIMVEC
0.054425 6.242100 6.380720 
6.277205 0.026457 6.409296 
4.180224 4.175550 0.022367 
PRIMCOORD
36 1
Li	      2.10884      2.06809      0.14985         0.046665      0.000430      0.046359
Li	      2.11332      0.14412      2.14081         0.051357      0.021726      0.002928
Li	      4.14702      2.04084      2.19305         0.037882     -0.009120      0.046611
Li	      4.23493      6.32419     10.55641        -0.015033      0.000223     -0.059694
Li	      0.14125      2.03425      2.16331        -0.006512      0.024471      0.026168
Li	      2.12162      2.07450      4.11129         0.008096      0.000831      0.007017
Li	      2.13728      6.24380      4.32221        -0.004186      0.023905      0.069967
Li	      6.25428      8.35619      6.43851         0.036665      0.006517     -0.014109
Li	      6.23354      6.34823      8.51302        -0.035755     -0.013204     -0.019718
Sc	      6.32663      4.20654     10.64101        -0.031495      0.039314      0.001495
Sc	      8.25799      8.32330      8.60152        -0.100806      0.063136      0.056742
Cr	      2.11539      4.12585      2.12626         0.042844     -0.022142      0.055449
Cr	      4.20271      4.19365      4.21017         0.029605     -0.029006     -0.038373
Cr	      8.34256      6.24748      6.38797        -0.041798      0.012035     -0.080189
Cr	      6.32252      4.15817      6.39153         0.010511     -0.029639     -0.054401
Fe	      0.23720      6.22776      6.44977        -0.105151     -0.002003      0.027332
Fe	      4.17334      6.36204      6.46833        -0.015253     -0.054522     -0.057265
Co	      6.33241      8.32001     10.67927        -0.033447      0.008977     -0.124346
O	      2.09852      2.18290      2.13706         0.019041      0.057878      0.004515
O	      4.12806      4.20825      2.14823        -0.032860      0.017903      0.005137
O	      4.32647      2.16850      4.34967        -0.006471     -0.008768      0.052132
O	      6.22272      4.03885      4.38433        -0.008503     -0.003189      0.033135
O	      6.21662      2.09091      6.27880        -0.014602      0.044351      0.024493
O	      8.34419      4.25163      6.48730         0.018977     -0.008952      0.031319
O	      2.16881      4.18858      4.14360        -0.032646      0.014080      0.001793
O	      4.20561      6.23090      4.41361         0.004715      0.020795     -0.068166
O	      4.26049      4.13872      6.31897         0.009229     -0.011045     -0.005393
O	      6.31540      6.15441      6.35720        -0.000077     -0.033018      0.020955
O	      6.31923      4.16626      8.49190         0.016157     -0.013493     -0.033880
O	      8.37385      6.24271      8.38167        -0.009161     -0.040721     -0.020662
O	      2.14417      6.23142      6.43595         0.108654      0.007855     -0.029793
O	      4.27102      8.36378      6.33427        -0.024688      0.037699     -0.040008
O	      4.22553      6.21021      8.37396         0.012043     -0.071541      0.096904
O	      6.27926      8.32009      8.74009         0.048100      0.005444      0.044682
O	      6.31593      6.32911     10.82151         0.012692     -0.039890     -0.004445
O	      8.36992      8.36140     10.62834         0.005210     -0.017317     -0.004689
