# total energy = -102.62591230 eV
 
CRYSTAL
PRIMVEC
-0.000623 2.099529 2.104229 
6.186006 0.046375 -2.153056 
-2.028391 6.430082 -4.338121 
PRIMCOORD
16 1
Li	     -0.04748      2.31367      1.89842         0.017060     -0.008708      0.015348
Li	      1.94143      2.12141      0.00524        -0.000870     -0.003113     -0.000414
Li	     -0.00166      4.04414      0.18024         0.009464      0.001696     -0.024868
Li	      4.23183      4.25972     -4.27113         0.006322     -0.000457     -0.001793
Ti	      2.17275      4.27612     -2.17975         0.296053     -0.133522      0.139084
Ti	     -0.18150      6.44257     -2.25479        -0.557276      0.031608     -0.029554
Ni	      4.25113      2.10152     -2.10021        -0.106386      0.005665     -0.021141
Ni	      2.17337      6.51763     -4.43322         0.019480     -0.030496      0.040359
O	      4.02685      4.27963     -2.17994        -0.326033      0.053780     -0.068977
O	      4.03207      2.11372     -0.01737        -0.011511      0.039534     -0.015603
O	      2.06689      6.35229     -2.15926        -0.022730     -0.079252      0.066913
O	      2.03682      2.34252     -2.35259        -0.035842      0.140398     -0.135240
O	      4.20926      6.39189     -4.31448         0.609555      0.027361     -0.008198
O	      0.08416      6.30669     -4.21876        -0.117004     -0.110532      0.120765
O	      0.09327      4.44302     -2.35878         0.034788      0.077634     -0.067156
O	      0.01604      2.14341     -0.02739         0.184929     -0.011596     -0.009526
