# total energy = -235.97870063 eV
 
CRYSTAL
PRIMVEC
0.011745 6.390719 6.301471 
6.293478 -0.000428 6.313827 
4.185361 4.258513 0.009787 
PRIMCOORD
36 1
Li	      8.34339      2.19337      6.31388        -0.025849      0.060212      0.003867
Li	      8.32707      4.26825      8.44019        -0.027462      0.019078      0.012654
Li	      2.11229      2.23179      4.25932         0.015712      0.068072      0.020999
Li	      4.08754      4.23495      4.28733        -0.074087     -0.057146      0.045357
Li	      8.28730      6.39969      6.36534        -0.042466     -0.019487      0.011749
Li	      6.32146      4.30354      6.32728         0.006307      0.037147      0.002063
Li	      2.14220      6.33455      4.15660        -0.004953     -0.066058     -0.051083
Li	      8.44414      8.40664      8.37565         0.054971     -0.092930     -0.054342
Li	      6.37900      6.37988      8.33214         0.057882      0.006594     -0.024068
Sc	     10.41538      4.26557      6.31325        -0.086385      0.083409     -0.036709
Sc	      2.11696      0.03329      2.11355         0.049220      0.019400      0.114587
Cr	      4.15680      2.14642      2.13662        -0.013317     -0.008243      0.035746
Cr	      8.37746      4.26203      4.24316        -0.048794      0.019763     -0.051030
Cr	     10.40334      6.45515      8.43329        -0.084939      0.060778     -0.026018
Cr	      6.32969      4.24842     10.47397        -0.020852      0.021286     -0.071470
Fe	      6.34475      2.16669      4.26369        -0.006234     -0.088064      0.021709
Fe	      4.28740      6.26206      6.22497        -0.060981      0.011755      0.036199
Ni	      2.16020      4.20546      6.26150         0.070141     -0.036134      0.068487
O	      2.09526      2.09032      2.11532        -0.018208     -0.000991      0.016096
O	      4.20070      4.25719      2.10235        -0.020690     -0.005685      0.015345
O	      4.28540      2.04828      4.11782        -0.046143     -0.023189     -0.007336
O	      6.36826      4.13824      4.21246         0.050201      0.068542     -0.014271
O	      6.31120      2.07880      6.32325         0.047168     -0.074691      0.080562
O	      8.41177      4.25824      6.20687         0.064460     -0.009405      0.016057
O	      1.97043      4.29464      4.24141        -0.035751      0.000231     -0.068465
O	      4.17863      6.50260      4.16796        -0.008485      0.043473     -0.052706
O	      4.17878      4.36476      6.31524         0.072502     -0.071888      0.013630
O	      6.19628      6.43788      6.31341         0.111700     -0.007059     -0.002489
O	      6.30637      4.11477      8.52101         0.016048     -0.088793     -0.005413
O	      8.56006      6.36471      8.42271         0.088424     -0.048811      0.005522
O	      2.15125      6.32563      6.34088        -0.030616      0.049783     -0.008558
O	      4.20451      8.48709      6.32396        -0.102714      0.002873      0.007702
O	      4.20254      6.53033      8.43151        -0.025501      0.068996     -0.005884
O	      6.19511      8.54658      8.49178        -0.055266      0.027833     -0.023897
O	      6.24461      6.37026     10.51016         0.008664     -0.019772      0.001661
O	      8.37739      8.62668     10.49985         0.126293      0.049121     -0.026252
