# total energy = -227.31210474 eV
 
CRYSTAL
PRIMVEC
0.013244 6.292618 6.461071 
6.205879 0.056029 6.417110 
4.144940 4.174091 0.029989 
PRIMCOORD
36 1
Li	      4.13656      4.13069      0.11135         0.018337     -0.017739      0.069234
Li	      4.09667      2.14840      2.13683        -0.013748      0.030969      0.060024
Li	      2.09546      4.15296      2.15205         0.025075     -0.008020     -0.003352
Li	      2.02168      2.14905      4.27229         0.040032     -0.017985     -0.031261
Li	      6.15549      4.28359      6.49703        -0.023042      0.047890      0.020429
Li	      8.33764      6.33405     10.67411         0.022733     -0.014420     -0.108282
Li	      2.10754      4.21239      6.43329         0.011208      0.014157     -0.021126
Li	      4.20523      6.20928      6.45414         0.019124     -0.022612     -0.028137
Li	      4.13465      4.23702      8.51582        -0.016273      0.002515     -0.048857
Sc	      8.26068      4.19932      4.33382         0.006227      0.069149      0.020286
Sc	      8.27246      6.37187      6.52131        -0.071968      0.007077      0.033362
Cr	      2.06759      6.32941      8.48319        -0.001813     -0.074519     -0.167423
Cr	      6.25899      8.38845     10.73987        -0.028688     -0.031230      0.007387
Cr	      0.16575      4.09660      4.33979         0.091044     -0.038761     -0.055382
Cr	      6.21484      6.32041      8.56987        -0.027263      0.055444      0.025676
Ni	      2.07808      2.10337      0.02624         0.016907     -0.048634     -0.044015
Ni	     10.35022      6.35119      8.62578        -0.073679      0.077940     -0.061605
Ni	      4.10883      4.24669      4.33333        -0.069764      0.024974     -0.011042
O	      2.04876      1.98259      2.07623         0.124176      0.003448      0.027120
O	      4.29850      4.23246      2.24333         0.062385     -0.116876     -0.093083
O	      4.21912      2.12293      4.33450         0.002218     -0.123084      0.025772
O	      6.20148      4.11018      4.12861         0.109251      0.020335     -0.011231
O	      6.28138      2.14059      6.36313         0.007256     -0.001441     -0.058844
O	      8.27494      4.21929      6.40208        -0.026935      0.055455     -0.012301
O	      1.99105      4.16301      4.32674        -0.231299     -0.001149      0.009211
O	      4.16925      6.35826      4.25628         0.019371      0.160451      0.109726
O	      4.14803      4.21542      6.35190         0.020977     -0.031650      0.149706
O	      6.22541      6.30396      6.62577        -0.005750      0.027991     -0.008088
O	      6.16753      4.31324      8.82669        -0.000906      0.053190      0.063772
O	      8.23704      6.31631      8.57495        -0.048838      0.004286     -0.014690
O	      2.07069      6.32568      6.68126         0.017612     -0.068575      0.208005
O	      4.05865      8.42170      6.22495        -0.023813     -0.011280     -0.053613
O	      4.07600      6.33519      8.64261        -0.024659     -0.021107      0.050724
O	      6.20740      8.40002      8.73323         0.023449      0.036664      0.001707
O	      6.23186      6.33944     10.61750        -0.017467     -0.030716      0.014825
O	      8.28608      8.40857     10.82401         0.068526     -0.012139     -0.064634
