# total energy = -237.00162684 eV
 
CRYSTAL
PRIMVEC
0.021031 6.294270 6.262680 
6.306040 0.008264 6.275598 
4.219360 4.220105 -0.009960 
PRIMCOORD
36 1
Li	      2.16223      8.31437      6.22225        -0.033697     -0.091256      0.044754
Li	      6.36689      8.42391     10.43204         0.008145      0.016337      0.063288
Li	      6.25497      6.35204      4.22501        -0.001282     -0.008722     -0.046162
Li	      6.23970      4.28571      6.26877        -0.016252      0.021143     -0.017194
Li	      4.22410      8.32067      4.31576         0.003726     -0.051869     -0.057184
Li	      2.24738      6.30255      4.28488         0.047853     -0.029386      0.097133
Li	      2.07163      4.21676      6.19974         0.048412      0.044728     -0.063421
Li	      4.27120      6.29594      6.16941        -0.021352     -0.029345     -0.000094
Li	      4.23267      4.20229      8.35425         0.072028      0.018739     -0.010643
Sc	      2.07841      4.12486      2.13983         0.095127     -0.063675      0.075115
Sc	      4.15673      2.19908      6.17029        -0.048849      0.101062      0.081585
Cr	      0.06639      6.26880      6.22005         0.165173      0.091367      0.145139
Cr	      8.38550     10.33454     10.45629        -0.107072     -0.074893     -0.036850
Cr	      6.29213      2.17841      8.38263        -0.011534     -0.056106     -0.017528
Cr	      4.26098      4.27671      4.18979         0.048264      0.025566     -0.135617
Cr	      6.29297      6.33728      8.36463        -0.057821     -0.022704      0.114897
Co	      2.21591      6.17787      8.25282        -0.035451     -0.129416      0.074781
Cu	      4.25115      8.35994      8.30563        -0.003886     -0.082469     -0.000749
O	      4.22970      8.52739      6.36828        -0.020811     -0.046081      0.025135
O	      2.02819      2.02815      2.07899         0.042487      0.224554     -0.029961
O	      4.26020      4.37683      2.05832        -0.250783      0.062309     -0.022477
O	      4.21051      2.13929      4.08832         0.018198     -0.028212     -0.030006
O	      6.42934      4.24246      4.08584         0.149387     -0.059684      0.046024
O	      6.26271      2.02731      6.37130        -0.042200      0.003454     -0.097448
O	      8.49776      4.23436      6.20236        -0.046228      0.008429     -0.089187
O	      2.27929      4.20920      4.12694        -0.027731     -0.000477     -0.057969
O	      4.23763      6.25766      4.07862         0.022028      0.049737      0.054949
O	      4.26832      4.21546      6.12190         0.032954     -0.090682      0.091583
O	      6.33943      6.32066      6.42875         0.045482      0.015521     -0.147083
O	      6.35755      4.23301      8.39312        -0.005792      0.007772      0.002349
O	      8.38951      6.30643      8.32000         0.012677      0.051915      0.029617
O	      2.04710      6.29317      6.32892        -0.078518      0.092174     -0.216661
O	      4.24344      6.20936      8.47381         0.286271      0.037842      0.040106
O	      6.28788      8.46446      8.35392        -0.193201     -0.157212      0.095461
O	      6.10730      6.32880     10.45945        -0.073855     -0.008882      0.008395
O	      8.41094      8.55790     10.46859        -0.021899      0.158423     -0.014079
