# total energy = -234.99468173 eV
 
CRYSTAL
PRIMVEC
0.018032 6.212505 6.439890 
6.252001 0.013691 6.444169 
4.166258 4.142836 0.011446 
PRIMCOORD
36 1
Li	      2.19861      6.20202      8.64640         0.016444     -0.028507     -0.065202
Li	      4.14077      2.04477      2.24294         0.027491     -0.000230     -0.032725
Li	      6.19282      2.11867      8.51896        -0.000155      0.047071     -0.019029
Li	      2.12402      2.01894      4.26037        -0.028114      0.003398      0.027708
Li	      8.32056      6.22429      6.55695        -0.009097      0.006004      0.025589
Li	      6.28740      4.09756      6.52122        -0.032939      0.012814      0.046161
Li	      8.36801      6.22459     10.56842        -0.029955      0.022710     -0.017758
Li	      8.30336      8.26815      8.56165        -0.020394     -0.019726     -0.030340
Li	      6.32384      6.20009      8.56208        -0.032091      0.033359     -0.033812
Sc	     10.40947      4.24529      6.55387         0.001510     -0.046812      0.044064
Sc	      6.31437      4.09719     10.60877         0.137040     -0.091782      0.022237
Cr	      8.30304      2.12978      6.48715         0.041756     -0.057834     -0.032880
Cr	      4.13393      6.26000     10.62134        -0.077903      0.086408     -0.051062
Cr	      4.16443      4.14241      4.29626        -0.065084      0.066144      0.066075
Cr	      6.29735      8.16417      6.56882        -0.007951     -0.163642     -0.115602
Cr	      4.17740      6.18200      6.55819         0.080497     -0.053473      0.000944
Cu	      6.24552      8.28805     10.65449         0.004826     -0.078703     -0.103266
Cu	      8.32029      4.19878      8.57666         0.026575     -0.052385      0.072049
O	      8.33502      6.06489      8.60127         0.007583      0.086204      0.007236
O	      6.28973      8.33811      8.35136        -0.029334      0.218640      0.205235
O	      2.09520      2.27955      2.00319         0.013315     -0.033685      0.067542
O	      3.98532      4.17588      2.24973         0.087444      0.022985     -0.030172
O	      4.21093      2.08948      4.27064        -0.012204     -0.041737     -0.018441
O	      6.21377      4.07086      4.21383         0.073200      0.057135     -0.015919
O	      6.35407      2.07433      6.50253        -0.026236      0.054601      0.036736
O	      8.34608      4.10304      6.21168        -0.022699      0.019278     -0.116683
O	      2.14825      4.18588      4.58790        -0.055557      0.023602     -0.004168
O	      4.20314      6.15914      4.49174        -0.006231      0.059704     -0.031315
O	      4.09964      4.18203      6.38146         0.082164     -0.040661     -0.023730
O	      6.16264      6.33452      6.48866         0.046836     -0.106336     -0.093820
O	      6.42057      4.14795      8.62126        -0.079273     -0.006883     -0.030595
O	      2.12027      6.24950      6.52575        -0.027802      0.050454      0.020783
O	      4.18860      8.24674      6.42102        -0.067097      0.024861      0.006926
O	      4.19308      6.21557      8.58732         0.000205     -0.045683      0.066568
O	      6.18027      6.24085     10.78343        -0.006721     -0.021895      0.058356
O	      8.35432      8.34716     10.78855        -0.010050     -0.005398      0.092308
