# total energy = -236.05565662 eV
 
CRYSTAL
PRIMVEC
0.011205 6.334308 6.263086 
6.282053 0.010573 6.263653 
4.215348 4.250390 -0.019825 
PRIMCOORD
36 1
Li	     10.37977     10.52644     12.39778        -0.067586      0.006803      0.048225
Li	      8.47121      4.22709      4.28861        -0.029500      0.001321     -0.036433
Li	      8.34364      4.30626      8.28412         0.011942      0.022543      0.016176
Li	      2.12986      2.18158      4.24509         0.020448      0.019175     -0.024416
Li	      8.31499      6.26262      6.29090         0.004531     -0.044535      0.025037
Li	      6.33759      4.38715     10.45726         0.065057      0.069109     -0.027645
Li	      8.32956      6.34679     10.46720         0.004115     -0.001318     -0.001673
Li	      2.09495      4.18214      6.17703         0.013157      0.003593      0.030767
Li	      8.43935      8.39060      8.36587        -0.009081     -0.019223      0.015010
Sc	      2.16680      6.31730      8.29710         0.024217     -0.000219     -0.010550
Sc	     10.37100      6.43608      8.32591        -0.016458      0.023693      0.054607
Cr	      4.19054      2.15878      2.05584        -0.012967      0.008010     -0.022198
Cr	      6.37911      8.36834     10.45965         0.078918     -0.058037      0.015166
Cr	      4.07758      4.23839      4.20914        -0.072604      0.002797     -0.003959
Cr	      6.34302      4.26573      6.25167        -0.000558     -0.001853     -0.007908
Cr	      4.24412      6.37332      6.20862         0.020919      0.003644     -0.042399
Ni	      8.43152      8.51919     12.48920         0.003648     -0.048801     -0.001125
Ni	      6.38263      6.32369      8.33775         0.009253     -0.019478      0.024942
O	      2.15635      2.06406      2.11078         0.022426     -0.015324      0.029517
O	      4.23924      4.21295      2.14438        -0.010780     -0.016998      0.058096
O	      4.31869      2.27965      4.09343         0.014884      0.024462     -0.019059
O	      6.19640      4.09938      4.20317        -0.024071     -0.027810      0.002386
O	      6.31789      2.18708      6.21164        -0.114978      0.015851     -0.038557
O	      8.31121      4.22842      6.22646        -0.060709      0.063226      0.055262
O	      2.29235      4.19010      4.19549         0.092931      0.024877     -0.014548
O	      4.26898      6.16783      4.18819        -0.009463     -0.049826     -0.023048
O	      4.26579      4.34099      6.15909         0.002885     -0.006037     -0.030215
O	      6.25354      6.26629      6.25856        -0.017246      0.005744     -0.073913
O	      6.28062      4.22921      8.29839        -0.027446     -0.068769      0.027304
O	      8.41744      6.38426      8.35361         0.117849     -0.022642      0.004964
O	      2.21635      6.36858      6.27388         0.024792     -0.051696     -0.014291
O	      4.21629      8.40477      6.29557         0.140499     -0.003206     -0.015149
O	      4.24035      6.46909      8.26100        -0.082151      0.020509     -0.017525
O	      6.24613      8.45945      8.43767        -0.002643      0.072342      0.028369
O	      6.25480      6.52184     10.41405        -0.000269      0.080823      0.125570
O	      8.20030      8.52063     10.43449        -0.113960     -0.012751     -0.136789
