# total energy = -236.25199233 eV
 
CRYSTAL
PRIMVEC
-0.028963 6.321197 6.319080 
6.343778 -0.031349 6.321252 
4.200738 4.187090 0.007636 
PRIMCOORD
36 1
Li	      2.12944      0.01940      2.13939        -0.016694      0.024363      0.021595
Li	      4.16969      2.07832      2.10234        -0.030931      0.024122      0.034308
Li	      8.33017      4.23843      4.20725        -0.098038      0.073234     -0.010191
Li	      6.37474      2.15479      8.40071        -0.010654      0.090405     -0.055328
Li	      2.05388      4.15055      2.12866        -0.034007     -0.018874      0.014992
Li	      2.14605      2.03906      4.18546         0.040543     -0.074777      0.008449
Li	      6.31933      4.22704      6.34565        -0.064684      0.063834     -0.017201
Li	      0.02242      4.18825      4.15947         0.031886     -0.008999     -0.050968
Li	      6.30039      8.34202      6.36083         0.047762     -0.075028      0.012111
Sc	      6.31380      8.44746     10.49471        -0.079595      0.025633      0.083269
Sc	      4.18894      4.19957      4.08994         0.043089     -0.091730     -0.069235
Mn	      2.10815      6.26971      4.19260        -0.034293      0.025126     -0.051246
Cr	      4.21926      4.13433      0.09268         0.027901     -0.010037     -0.028930
Cr	      2.11707      2.13137      0.17531        -0.059470      0.074520      0.059804
Cr	      4.22920      6.31251      6.34288        -0.118509      0.131183     -0.030924
Cr	      6.29996      6.24073      8.40682         0.127421      0.025235      0.046132
Co	      8.37535      6.25561      6.32726        -0.009886     -0.029843      0.023273
Cu	      4.24431      4.20311      8.36517        -0.057450     -0.057762     -0.034614
O	      6.22881      4.28395      8.41477         0.086024     -0.120469     -0.044796
O	      2.07651      2.10396      1.96153        -0.011145      0.019850      0.090220
O	      4.20661      4.17521      2.05848        -0.003980     -0.032842     -0.039695
O	      4.23768      2.10189      4.30910         0.000181      0.043533     -0.052079
O	      6.27769      4.13894      4.20503         0.061620      0.071752     -0.005127
O	      6.39619      1.94249      6.33229        -0.268176     -0.019435      0.014321
O	      8.57361      4.00669      6.28814        -0.062499     -0.015732     -0.117864
O	      2.11306      4.36382      4.20467        -0.040396     -0.024149     -0.014087
O	      4.09313      6.29200      4.32042         0.038387      0.068815      0.013374
O	      4.18799      4.30384      6.33492        -0.057524      0.021882     -0.069918
O	      6.23674      6.31140      6.41344         0.296366     -0.016468     -0.050054
O	      8.32270      6.36605      8.34760         0.041078     -0.175804      0.066137
O	      2.08747      6.48124      6.34047         0.095862     -0.078152      0.091636
O	      4.05214      8.40494      6.37021         0.145396     -0.078264      0.075421
O	      4.30241      6.22035      8.35002        -0.159908      0.182085      0.087477
O	      6.36922      8.27686      8.45120        -0.022432      0.038134     -0.072284
O	      6.44289      6.27736     10.55679         0.034209     -0.061417      0.014640
O	      8.40293      8.22844     10.60273         0.122545     -0.013926      0.057382
