# total energy = -237.67712464 eV
 
CRYSTAL
PRIMVEC
0.030070 6.354688 6.210264 
6.359495 0.030567 6.209474 
4.269400 4.265300 -0.009063 
PRIMCOORD
36 1
Li	      2.30041      8.41683      6.30095         0.053658     -0.043446     -0.051687
Li	      4.20456      8.44589      8.11919        -0.008801     -0.015054      0.037597
Li	      6.35126      2.29228      8.22866         0.013858     -0.007782     -0.004413
Li	      8.26502      4.36522      8.25394        -0.056124      0.051592      0.046057
Li	      6.41424      4.25079      6.45213         0.014621     -0.038926     -0.049334
Li	      6.27846      4.32088     10.26428        -0.008701      0.041593      0.060169
Li	      2.30509      6.32863      4.04811         0.056349     -0.017182     -0.041937
Li	      4.19279      6.52206      6.25344        -0.026209      0.078128     -0.005320
Li	      6.45418      6.15439      8.22923         0.004702     -0.000017      0.028372
Sc	      6.48031      8.44948     10.28065        -0.009516      0.002712      0.035844
Sc	      1.99870      2.19211      4.02792        -0.005848      0.026397     -0.008592
Mn	      8.50957      6.40293      6.28377         0.033900     -0.025950     -0.050487
Cr	      4.26871      4.24122      0.06410        -0.006140      0.044571      0.039601
Cr	      4.27631      6.35981     10.32816        -0.062705      0.054436      0.032354
Cr	      4.24591      4.28989      4.08256         0.057582     -0.080992     -0.007597
Cr	      6.39333      8.53160      6.22762         0.030402     -0.008153     -0.033306
Co	      2.16194      6.37143      8.26033        -0.013866      0.029631      0.039356
Ni	      4.38910      4.26255      8.28294        -0.064914      0.016706     -0.016583
O	      6.36291      4.25400      8.31555         0.103863     -0.006456      0.026435
O	      2.15333      1.96656      2.04675        -0.002008     -0.035266     -0.033008
O	      4.44377      4.22555      2.09036         0.009847     -0.012513     -0.029328
O	      4.24588      2.12914      4.22510         0.001569     -0.001778      0.022874
O	      6.39017      4.27598      4.04784         0.007141     -0.014319      0.009118
O	      6.18971      2.07013      6.17835        -0.065258     -0.005941      0.036207
O	      8.56922      4.44134      6.15765        -0.006371      0.047113      0.035229
O	      2.27406      4.24894      4.18393         0.005248     -0.010856     -0.027808
O	      4.28768      6.22813      4.21768         0.002409      0.005686      0.007619
O	      4.21066      4.09939      6.12931        -0.021437     -0.064005     -0.019480
O	      6.56385      6.48812      6.18342         0.023606      0.000776      0.026800
O	      8.50332      6.44796      8.12661        -0.015045     -0.108686      0.000390
O	      2.06071      6.29333      6.33956         0.029955      0.003891     -0.079704
O	      4.41676      8.60409      6.18890        -0.020712     -0.025293     -0.018093
O	      4.12894      6.34150      8.34734         0.002704      0.100014     -0.038525
O	      6.47095      8.65034      8.22508        -0.040261     -0.000865     -0.025523
O	      6.27062      6.42371     10.43530        -0.018934     -0.005096     -0.033309
O	      8.48501      8.63522     10.39958         0.001434      0.025329      0.090012
