# total energy = -103.13101914 eV
 
CRYSTAL
PRIMVEC
-0.000426 2.105815 2.107743 
6.154737 4.235529 -6.348279 
-4.102654 2.116016 -2.117074 
PRIMCOORD
16 1
Li	     -4.08233      2.13006     -2.12566         0.011093      0.008804     -0.009596
Li	     -2.21905      4.15411     -2.04349        -0.025652     -0.008409      0.008271
Li	      2.09176      6.46485     -4.36100        -0.021337     -0.007056      0.012604
Li	     -0.07292      2.00438     -1.99807         0.023331      0.006001     -0.010199
Ti	     -2.03350      2.12650     -0.02247         0.175013      0.091746     -0.092823
Ti	      1.97697      4.20991     -2.09171        -0.272418     -0.040290      0.039092
Ni	      0.02874      4.26406     -4.26520        -0.001631     -0.023731      0.024270
Ni	      4.25136      4.27123     -4.26952        -0.038292      0.001592     -0.004832
O	     -0.06232      6.35446     -4.24986        -0.015066      0.030459     -0.020856
O	      0.10528      4.30529     -2.20111         0.268662     -0.093544      0.095262
O	      2.10895      4.10829     -4.10816         0.044419     -0.059291      0.060750
O	     -0.14771      2.11921     -0.00741        -0.215699     -0.011712      0.012641
O	      2.05673      2.21222     -2.21210        -0.096072      0.102079     -0.109636
O	      2.14825      6.32254     -6.32373         0.190044     -0.005920      0.003277
O	     -2.06491      2.00934     -2.00444        -0.010703     -0.100715      0.107269
O	      4.10164      6.37659     -4.26757        -0.015692      0.109987     -0.115492
