# total energy = -240.18293143 eV
 
CRYSTAL
PRIMVEC
-0.002735 6.222028 6.440970 
6.156339 0.027229 6.410847 
4.134213 4.157950 -0.011841 
PRIMCOORD
36 1
Li	      2.13232      6.16771      8.45160         0.053904     -0.067203     -0.049030
Li	      4.12401      6.21219     10.67066        -0.025456     -0.006159     -0.047872
Li	      8.19399      4.20272      8.51209         0.002124     -0.036151      0.036596
Li	      4.11484      4.13084      4.36725        -0.010103      0.033059      0.025249
Li	      8.16049      6.27555      6.48906        -0.002878      0.061363     -0.005495
Li	      6.14064      4.17812     10.67984        -0.041385     -0.026298      0.005713
Li	      2.11513      4.12075      6.43573         0.007531     -0.007307     -0.003514
Li	      4.13641      6.21516      6.54195        -0.023440      0.003092      0.009931
Li	      4.12818      4.22924      8.47383        -0.052659      0.071438     -0.021409
Sc	     10.22714      6.21526      8.51561         0.080030     -0.027446      0.149190
Sc	      2.05200      6.10501      4.36061         0.319380     -0.012738     -0.006531
Mn	      4.13227      8.29586      8.55739         0.047066      0.051556      0.032016
Cr	      2.10247      8.31277      6.42510         0.052224     -0.245760      0.094224
Cr	      6.14406      2.12955      4.26635        -0.097104      0.174348     -0.068870
Cr	      2.05917      2.12694      4.29538        -0.037126     -0.033151     -0.201675
Cr	      6.11522      4.25706      6.39025        -0.296734     -0.178546     -0.213499
Co	     10.24490      4.17342      6.40555        -0.106216     -0.094736      0.049163
Co	      6.17864      6.23382      8.55403         0.253809     -0.287614     -0.018300
O	      2.14363      2.04944      2.14118         0.017183      0.052206     -0.009592
O	      4.13436      4.07962      1.99194        -0.025333     -0.005814      0.610047
O	      4.10283      2.13275      4.07094        -0.012886     -0.009998     -0.003342
O	      6.17811      4.18827      4.42585         0.049606      0.043871      0.143296
O	      6.19789      2.18443      6.34444        -0.003477      0.209194      0.000408
O	      8.13440      4.09569      6.43598        -0.240131      0.198784      0.045102
O	      2.03495      4.08819      4.34220        -0.035644      0.025230     -0.050935
O	      4.17469      6.24378      4.15169         0.005374      0.004345     -0.014988
O	      4.28111      4.15939      6.44608         0.177249      0.037687      0.014867
O	      6.21316      6.17247      6.26384         0.017745      0.016651      0.069352
O	      6.16097      4.20792      8.38320         0.035460     -0.541872     -0.080633
O	      8.20575      6.25406      8.61324         0.402083      0.055176      0.026132
O	      2.04413      6.29598      6.42832         0.167008      0.000536     -0.144093
O	      4.06946      8.29608      6.61958         0.024009     -0.208217      0.070135
O	      4.20932      6.39129      8.57502        -0.688663      0.126919     -0.025576
O	      6.07156      8.27173      8.69042        -0.099846      0.632585      0.086171
O	      6.13104      6.34767     10.83677         0.063922     -0.014890     -0.536339
O	      8.14374      8.30131     10.83618         0.023373      0.005862      0.034103
