# total energy = -232.36816047 eV
 
CRYSTAL
PRIMVEC
0.040042 6.182486 6.464643 
6.294814 0.025558 6.478866 
4.189977 4.124770 0.024116 
PRIMCOORD
36 1
Li	      2.20816      8.17744      6.58559         0.002716     -0.043240      0.053388
Li	      2.19193      6.19727      8.50885        -0.051154      0.020320     -0.114802
Li	      4.24684      8.20704      8.49929        -0.038735      0.071028     -0.053449
Li	      0.04176      2.03860      2.15357         0.005044     -0.074198     -0.023029
Li	      8.32163      6.27135      6.52124         0.185467      0.033576      0.084821
Li	      4.22228      8.20873      4.41130        -0.039691      0.062758      0.048657
Li	      6.28132      8.17725      6.63755        -0.004849      0.266423      0.131732
Li	      4.27539      6.27380      6.49647        -0.187452      0.050008      0.027021
Li	      6.28616      6.26358      8.46865         0.023980     -0.012940      0.137573
Sc	      6.22705      2.08982      4.26217         0.131983      0.045165     -0.111787
Sc	      6.27596      4.19815      6.54863        -0.070040     -0.934877      0.359992
Mn	      4.24597     10.26075      6.50769         0.090321     -0.034726      0.499462
Cr	      4.26173      6.18490     10.74607         0.086445     -0.235117     -0.012687
Cr	      2.12223      4.10205      2.14358        -0.016680      1.233870     -0.064322
Cr	      2.15963      6.15298      4.35456        -0.303464      0.047565     -0.039370
Cr	      8.40744      8.24841      8.63653         0.265312     -0.151482      0.018369
Cu	      4.16897      4.13492      4.39510        -0.014688     -0.271345     -0.035108
Ni	      6.25383      6.24334      4.36883        -0.065620      0.187137     -0.379751
O	      4.21486      8.39790      6.49454         0.007700     -0.143453     -0.067889
O	      2.07366      2.26579      2.25222         0.007194     -1.651583      0.684316
O	      4.04323      4.15718      1.95351         0.693310     -0.078034     -0.247150
O	      4.17499      2.06152      4.26701        -0.637204     -0.186515      0.129575
O	      6.36107      4.15961      4.36432         0.258371      0.374025      0.056093
O	      6.31060      2.01361      6.39290        -0.061430      0.119908     -0.146975
O	      8.47627      4.14378      6.50414        -0.138998      0.066128     -0.340421
O	      2.18272      4.17024      4.13452        -0.338745     -0.381764      0.261747
O	      4.14164      6.06653      4.36483         0.828752      0.316691      0.078468
O	      4.25880      4.12080      6.63593         0.001351      0.088261      0.121735
O	      6.30337      6.18931      6.40246         0.005232      0.457302     -0.749159
O	      6.40637      4.16647      8.60689        -0.661855      0.009618     -0.244295
O	      8.40443      6.15082      8.80751        -0.004090      0.637176      0.089953
O	      1.96150      6.18852      6.36871         0.072989     -0.046365     -0.088509
O	      4.25343      6.10428      8.80034         0.046312      0.151578      0.005742
O	      6.43886      8.24270      8.70194        -0.101054     -0.017130      0.017747
O	      6.30526      6.18418     10.96590         0.044179      0.013062     -0.200181
O	      8.41829      8.25249     10.68277        -0.020908      0.011171      0.112490
