# total energy = -234.58910255 eV
 
CRYSTAL
PRIMVEC
0.007773 6.278405 6.331544 
6.284586 0.009164 6.330060 
4.183573 4.178432 0.012330 
PRIMCOORD
36 1
Li	      6.24970      0.09527      6.32048        -0.102738      0.098027      0.112292
Li	      8.31137      2.11185      6.36498        -0.067986      0.029520      0.077409
Li	      6.24756      2.13770      8.37103        -0.063572      0.087448     -0.170613
Li	      6.26019      6.30275      4.29251        -0.015082      0.009667     -0.031637
Li	      4.08563      4.26528      4.24615        -0.125629      0.113983     -0.053782
Li	      6.29579      4.19250      6.34722        -0.016624     -0.045555      0.037860
Li	      2.16387      6.20458      4.27950         0.163646     -0.022187      0.093729
Li	      2.14716      4.15642      6.28205         0.010334     -0.001263     -0.000861
Li	      6.31156      6.26595      8.38298         0.013891     -0.040639     -0.099115
Sc	      2.03498      0.07135      2.08221        -0.074310      0.043490     -0.131048
Sc	      0.07255      4.22301      4.21778         0.062296     -0.159193      0.024305
Mn	      4.25046      6.23921      6.27845         0.025721      0.003475     -0.092858
Cr	      4.20139      8.36215      8.42544         0.066346     -0.037015     -0.092494
Cr	      6.29279      2.06653      4.29346         0.055584     -0.081280      0.029500
Cr	      8.33110      6.26679      6.34755        -0.006293      0.108154     -0.036353
Cr	      4.20430      4.16417      8.41573        -0.042800      0.008024     -0.064899
Cu	      8.37445      4.22096      8.43732        -0.020094      0.079470     -0.015907
Cu	      8.36730      4.16831      4.33906         0.040688     -0.023852      0.093028
O	      8.35316      4.29585      6.53567        -0.061021     -0.149744     -0.103446
O	      2.20659      2.10251      2.11276        -0.026307     -0.067034     -0.030536
O	      4.21730      4.04541      2.08471         0.030482      0.077224      0.034258
O	      4.26822      2.01113      4.20576        -0.059664      0.081465     -0.009311
O	      6.41098      4.06747      4.20187         0.087294      0.143657      0.089779
O	      6.14588      2.08971      6.24409         0.121099      0.063122      0.106235
O	      2.08655      4.21805      4.02446        -0.016597      0.081379      0.119377
O	      4.21009      6.29968      4.40552         0.017786     -0.058948     -0.037118
O	      4.17955      4.23102      6.41621         0.013961      0.018883     -0.061744
O	      6.23077      6.29387      6.30943        -0.009138     -0.017697     -0.033853
O	      6.16181      4.16523      8.52789         0.006370      0.032341     -0.049094
O	      8.36513      6.36905      8.31794        -0.089113     -0.025004      0.117096
O	      2.30299      6.25205      6.34679         0.002051     -0.033360     -0.012284
O	      4.22831      8.19874      6.40216         0.080868      0.061628     -0.009915
O	      4.19762      6.27755      8.26407         0.111302     -0.081893      0.053690
O	      6.27404      8.39100      8.56711         0.065499     -0.131227     -0.061834
O	      6.18711      6.32041     10.61263        -0.105845      0.016294      0.128291
O	      8.33226      8.42921     10.47634        -0.072406     -0.181358      0.081856
