# total energy = -233.99130146 eV
 
CRYSTAL
PRIMVEC
-0.007755 6.161709 6.346918 
6.258325 -0.002025 6.341222 
4.184295 4.116500 -0.013598 
PRIMCOORD
36 1
Li	      4.16979      4.11953      0.02853        -0.010615     -0.007763     -0.012052
Li	      4.21116      6.14901     10.55027        -0.002599     -0.038699      0.025955
Li	      6.23822      2.10156      8.45461        -0.032958      0.128249      0.011050
Li	      8.38177      4.13848      8.43878        -0.069690      0.008926      0.003293
Li	      4.19200      4.10017      4.18641        -0.029346      0.036775      0.020523
Li	      6.23746      4.13837      6.42461        -0.013022     -0.024069      0.149748
Li	      6.24983      4.12376     10.50738        -0.004827     -0.021095     -0.087517
Li	      6.24329      8.19772      6.32456         0.031795      0.009710     -0.080330
Li	      4.20972      4.10228      8.45806         0.106037     -0.038800     -0.032867
Sc	      8.35752      2.22219      6.35989         0.007339      0.030299     -0.071301
Sc	      2.09745      6.05965      4.13223         0.061624     -0.135975      0.038849
Mn	      4.19038      2.07688      6.38781        -0.008716      0.074929     -0.023326
Cr	      6.23200     10.23890      8.44565        -0.002052      0.058970      0.046952
Cr	      6.23313      2.07144      4.23160        -0.024777      0.056495      0.058230
Cr	      2.06540      2.08004      4.22397         0.007704     -0.106072      0.007946
Cr	      4.19712      6.10275      6.35275         0.078730      0.029048     -0.092757
Ni	      4.18115      2.09141      2.09406        -0.043278     -0.037624     -0.012285
Ni	      6.23402      6.08872      8.45983         0.007352     -0.106650     -0.045279
O	      6.22632      4.12904      8.46223         0.066887     -0.006499      0.040054
O	      2.10733      1.99975      2.17731        -0.037041     -0.052587     -0.059587
O	      4.30454      4.07730      2.07049         0.063136      0.009593     -0.011560
O	      4.15112      2.06748      4.37330         0.050427     -0.012743      0.059102
O	      6.29048      4.12799      4.07537         0.013192     -0.056668     -0.114278
O	      6.14174      2.08527      6.24883        -0.032595     -0.009192      0.041331
O	      8.37541      4.24731      6.34283        -0.017871      0.013161      0.028905
O	      2.07490      4.04152      4.18739        -0.003774      0.235398     -0.022709
O	      4.23999      6.14268      4.34214        -0.060364     -0.014507     -0.037885
O	      4.18346      4.03671      6.38263        -0.068822     -0.175685      0.004972
O	      6.32303      6.16640      6.25226         0.058336      0.001595      0.035809
O	      8.32395      6.16565      8.33204         0.093898     -0.003907     -0.021983
O	      2.18661      6.17440      6.35955        -0.053224      0.002558      0.080908
O	      4.12659      8.11824      6.38127        -0.013751      0.060461     -0.048289
O	      4.13287      6.19320      8.35216        -0.115596      0.009345      0.061025
O	      6.19729      8.22482      8.57258         0.004586      0.080045      0.001139
O	      6.29024      6.24109     10.52631        -0.015713      0.009415      0.073214
O	      8.21991      8.19109     10.65673         0.009587     -0.006440     -0.014998
