# total energy = -236.36870892 eV
 
CRYSTAL
PRIMVEC
0.021576 6.319009 6.250483 
6.305581 -0.002858 6.274965 
4.195872 4.221196 0.005895 
PRIMCOORD
36 1
Li	      4.17577      4.20776      0.04520        -0.010656     -0.017921     -0.006705
Li	      2.15193      8.40984      6.28666         0.038963     -0.021126     -0.002431
Li	      6.29177      2.19017      8.30432         0.052689      0.062708     -0.032710
Li	      6.30707      6.28699      4.24450         0.026712     -0.065825      0.011261
Li	      4.22822      4.23205      4.23326         0.008002     -0.007135     -0.002854
Li	      6.25710      4.20962      6.32126        -0.010854      0.004839      0.074076
Li	      2.11202      4.16642      6.18913        -0.014818     -0.015870     -0.070640
Li	      4.24726      6.32104      6.18618         0.019299      0.017025     -0.025651
Li	      4.31809      4.16032      8.27017         0.055729      0.077227      0.021011
Sc	      2.07212      6.32245      8.22962         0.001410     -0.075332     -0.009959
Sc	      8.34796      4.20626      4.34867        -0.012555     -0.014235     -0.023569
Mn	      4.18302      8.44907      8.23392         0.089896     -0.141950     -0.001846
Mn	      2.16053      6.32716      4.22277        -0.137623      0.015779      0.146451
Cr	      4.24463      2.26086      6.28582         0.054173     -0.094682     -0.071572
Cr	      4.23550      8.39217      4.21070        -0.039096      0.144637      0.031616
Cr	      6.32852      6.30997      8.29913        -0.126093      0.105175      0.088905
Co	      8.41866      4.20550      8.33655         0.062739     -0.315170     -0.371646
Ni	      6.28565      2.13567      4.25116         0.025938     -0.064368      0.011838
O	      2.21185      2.05008      2.07976        -0.061787      0.055475      0.033720
O	      4.19648      4.06878      2.07730         0.323808     -0.018192      0.048628
O	      4.22232      2.07310      4.31325        -0.104721      0.003661      0.099630
O	      6.35705      4.17246      4.09657        -0.061193      0.117228      0.029209
O	      6.12585      2.09025      6.27854        -0.115361     -0.012102      0.147489
O	      8.39702      4.31962      6.33566         0.059504      0.124436     -0.429959
O	      2.04609      4.38434      4.07932         0.090231      0.227565      0.611113
O	      4.04661      6.40653      4.14236        -0.038927     -0.074260     -0.057971
O	      4.21136      4.06144      6.28194        -0.008115      0.077913     -0.010489
O	      6.49259      6.30154      6.34658         0.016459      0.010719     -0.018035
O	      6.35290      4.32358      8.44203        -0.346417      0.010754      0.060145
O	      8.33287      6.37202      8.42713         0.017789      0.100726     -0.012073
O	      2.11717      6.30491      6.12405         0.038083     -0.025945     -0.123322
O	      4.23866      8.40678      6.15950        -0.003092     -0.031946     -0.042723
O	      4.26498      6.41946      8.36975        -0.008163      0.000693     -0.002366
O	      6.18218      8.38347      8.39210        -0.049216      0.011560     -0.082965
O	      6.40117      6.28709     10.38008         0.073791     -0.088506     -0.029288
O	      8.44807      8.34573     10.46129         0.093473     -0.083554      0.013683
