# total energy = -102.17155737 eV
 
CRYSTAL
PRIMVEC
-0.000257 2.085797 2.085866 
8.700574 -4.226714 4.225714 
2.152752 4.190035 -2.104598 
PRIMCOORD
16 1
Li	      2.36246      4.00914     -1.92754         0.000792      0.015823     -0.014543
Li	      2.09290      2.07018      0.01207        -0.000327     -0.015137      0.015980
Li	      4.02837      2.16132      2.00688        -0.004042      0.013481     -0.012860
Li	      6.48351      0.02117      2.06078        -0.005679      0.005288     -0.002655
Ti	      6.37097      2.10541     -0.02374        -0.432105      0.100814     -0.098556
Ti	      6.65647     -2.13435      4.21959         0.378821     -0.024324      0.022708
Ni	      4.11423      4.26385     -0.09572         0.021484     -0.102693      0.101868
Ni	      8.88488     -0.05122      4.22041        -0.058123      0.031629     -0.036493
O	      6.67956      2.16446      2.00372         0.035278      0.027536     -0.027215
O	      6.50597     -0.12905      4.29827        -0.063208     -0.039888      0.042113
O	      8.62782      0.06573      2.01710        -0.026710      0.134522     -0.131130
O	      8.49592     -2.04057      4.12371        -0.436308     -0.111614      0.111055
O	      2.10555      4.15662      0.01104         0.086567     -0.005774      0.005041
O	      2.16876      2.02305      2.14532         0.000315      0.151145     -0.150765
O	      4.55687      2.06420      0.01767         0.489294     -0.046363      0.043323
O	      4.47591     -0.15247      2.23499         0.013953     -0.134445      0.132130
