# total energy = -243.50113601 eV
 
CRYSTAL
PRIMVEC
0.026866 6.368658 6.342220 
6.349322 0.033246 6.335913 
4.237492 4.246086 0.017510 
PRIMCOORD
36 1
Li	      6.36776      6.37447     12.51026         0.028001     -0.012061     -0.069473
Li	      8.47621      8.60707     12.53245         0.013978      0.062908      0.076219
Li	      2.27042      6.25779      8.38444         0.019662     -0.014566     -0.045911
Li	      8.54588     10.47902     10.60918         0.005991      0.033737     -0.013797
Li	      6.54617      8.47200     10.71077         0.025022     -0.036215      0.040521
Li	      6.42287      4.20480      6.29390         0.002082      0.023636     -0.032412
Li	     10.45695      8.59751     10.71844        -0.005936      0.008835      0.021295
Li	      4.18165      6.39453      6.39274        -0.002415     -0.001525      0.027361
Li	      8.40958      8.70058      8.59232        -0.000118     -0.018031      0.086648
Sc	      4.29051      8.43593      8.36046        -0.001863     -0.046702      0.070315
Sc	      6.38722      2.24614      8.34723         0.051142      0.009360     -0.049347
Mn	      6.27527      6.34235      4.31983         0.074270     -0.104644     -0.016830
Mn	      4.26177      4.26054      4.28956         0.072599     -0.069887      0.019948
Cr	      8.47163      4.28714      8.40700         0.017698     -0.082586      0.005134
Cr	      8.47339      6.35913      6.31831        -0.011642      0.027713     -0.065474
Cr	      8.44703      6.50351     10.68121        -0.023545      0.043409     -0.012263
Cr	      6.34795      6.37414      8.48818        -0.107863      0.041833      0.050157
Co	      2.13758      4.25971      6.34309        -0.071400      0.075596      0.055021
O	      2.12078      2.24239      2.05535        -0.055950      0.036405      0.006544
O	      4.16679      4.26835      2.29196        -0.063110      0.043544     -0.015285
O	      4.01752      2.05368      4.29558        -0.030403      0.046360      0.030191
O	      6.18542      4.40264      4.26721        -0.056349     -0.001027     -0.009143
O	      6.22619      2.17134      6.35563        -0.017514     -0.018019     -0.000154
O	      8.49126      4.37752      6.46226         0.006584     -0.021314     -0.005591
O	      2.23719      4.20280      4.26654        -0.008038      0.062730     -0.048405
O	      4.29061      6.43592      4.20215        -0.086101     -0.021986     -0.010050
O	      4.12203      4.15496      6.22612        -0.076532     -0.017945      0.007043
O	      6.43778      6.51615      6.44712         0.012609     -0.008392     -0.000863
O	      6.47263      4.33315      8.42242         0.053318     -0.026093     -0.019111
O	      8.46066      6.32137      8.45120        -0.005083      0.006054      0.001528
O	      2.15447      6.19353      6.26589        -0.002952     -0.027795      0.008080
O	      4.42554      8.51210      6.38305         0.085191      0.006718     -0.055403
O	      4.35270      6.40711      8.47709         0.057571      0.023102      0.007105
O	      6.38119      8.43301      8.32028         0.001010     -0.010755     -0.033424
O	      6.49654      6.39372     10.46203         0.053581      0.025815      0.019661
O	      8.48441      8.41645     10.61346         0.046506     -0.038213     -0.029836
