# total energy = -244.75040828 eV
 
CRYSTAL
PRIMVEC
0.012281 6.375244 6.296200 
6.377285 -0.006566 6.315574 
4.243598 4.254903 0.003624 
PRIMCOORD
36 1
Li	      6.44795     10.56844      8.46618         0.009689     -0.016946      0.024271
Li	      8.45981      4.20612      4.24861         0.050530     -0.044871     -0.006052
Li	      6.38455      2.16373      4.30920         0.005912     -0.008135      0.031373
Li	      6.38344      6.32564      4.37172         0.008179     -0.032733      0.011619
Li	      4.17677      2.15247      6.18543        -0.024933     -0.004142      0.000932
Li	      6.36700      4.30785      6.19168        -0.003478      0.037592      0.040222
Li	     10.55350      8.53657     10.57077        -0.047310      0.070825     -0.052644
Li	      2.12738      6.41418      4.24577        -0.041814      0.033032     -0.031566
Li	      4.34028      6.34118      6.21093         0.037242     -0.015434      0.004495
Sc	      4.25827      6.40441      2.13948        -0.019227      0.055983     -0.055457
Sc	      6.37847      6.36678      8.45891        -0.003009     -0.015674      0.017874
Mn	      6.39534      6.38104     12.46753        -0.039006      0.045823      0.023174
Mn	      8.45676      8.56620      8.48575         0.008070      0.001966      0.015829
Cr	      8.53717      8.45588     12.51120        -0.029613     -0.015472     -0.007717
Cr	      2.15087      4.25263      2.13049        -0.073152      0.030250     -0.051502
Cr	      4.34854      4.25983      4.26179         0.178153     -0.038558      0.012451
Cr	      2.12080      4.22265      6.21892        -0.029252      0.049561      0.059174
Fe	      4.22447      2.04695      2.20076         0.019124      0.059648     -0.102411
O	      2.17169      2.21564      2.00448        -0.029668     -0.013100     -0.005764
O	      4.17798      4.23061      2.17756        -0.000997     -0.015968      0.188180
O	      4.23887      2.29356      4.12618        -0.021937      0.110632      0.145496
O	      6.18120      4.24825      4.23764        -0.241300      0.015593      0.005688
O	      6.51098      2.04391      6.35065         0.021941     -0.065083      0.057323
O	      8.66390      4.14237      6.39089         0.000215     -0.003510      0.046960
O	      2.28753      4.23295      4.18358         0.041763     -0.005767     -0.014339
O	      4.25550      6.19234      4.17627         0.017932     -0.100336      0.004352
O	      4.13115      4.27354      6.24681         0.001691     -0.003932     -0.146331
O	      6.37658      6.49642      6.34750        -0.013680      0.023947     -0.037247
O	      6.48175      4.22894      8.39890         0.082529     -0.066610     -0.004647
O	      8.53657      6.28762      8.38673         0.069819     -0.055892      0.009546
O	      1.93775      6.37445      6.27859         0.074988     -0.037823     -0.018703
O	      4.25445      8.55088      6.36042         0.022729      0.028799     -0.001081
O	      4.25484      6.46951      8.43883         0.005589     -0.032316     -0.022622
O	      6.29387      8.49121      8.26856        -0.033703      0.034037     -0.050273
O	      6.36999      6.36832     10.47068        -0.003536     -0.005950     -0.172907
O	      8.52636      8.49374     10.56319        -0.000480      0.000561      0.082304
