# total energy = -240.46425076 eV
 
CRYSTAL
PRIMVEC
0.013159 6.321031 6.267780 
6.305355 0.030744 6.250927 
4.225904 4.225108 -0.001956 
PRIMCOORD
36 1
Li	      0.17305      6.25073      6.31734        -0.046248     -0.028774     -0.011165
Li	      2.20214      8.27205      6.36094         0.022914     -0.000951     -0.048625
Li	      2.14604      6.33695      8.22847        -0.000160      0.013916      0.052515
Li	      6.16858      6.48074      4.18854        -0.020470     -0.000034     -0.014806
Li	      4.18029      4.23918      4.11112        -0.028571      0.019326      0.025941
Li	      8.34291      6.44241      6.25905         0.009796     -0.025767     -0.033779
Li	      4.33240      8.26197      4.33324         0.003142      0.036755     -0.002530
Li	      4.15014      6.40721      6.21886         0.034252     -0.008645      0.034657
Li	      6.27721      6.44391      8.24636         0.032871     -0.014978      0.035641
Sc	      8.55226     10.55355     10.53941         0.012199     -0.027892      0.047126
Sc	      6.20275      4.40729      6.22555         0.049191     -0.071894      0.002488
Mn	      6.32146      2.13520      4.23440         0.046772     -0.008756     -0.137782
Mn	      8.41082      4.25352      8.31631        -0.087083      0.046685      0.018809
Cr	      4.21932      8.43064      8.29123         0.053052      0.034076     -0.107076
Cr	      4.27201      6.25539      2.07020         0.041320     -0.016641     -0.016893
Cr	      2.15460      6.29350      4.22212         0.002015      0.033499     -0.114558
Cr	      4.17911      4.26432      8.31898        -0.070691     -0.005994      0.021455
Ni	      2.09024      4.20171      6.20313        -0.027094     -0.036840      0.016296
O	      2.12579      2.12654      2.12238         0.004381     -0.096864     -0.018206
O	      4.14396      4.20348      2.05890         0.065017     -0.013706      0.004472
O	      4.40759      2.09225      4.09863        -0.005940      0.037067      0.025311
O	      6.40331      4.06367      4.19962        -0.041829     -0.026722      0.002501
O	      6.31656      2.19163      6.17230        -0.007134     -0.002606      0.085499
O	      8.34758      4.29104      6.36374        -0.015884      0.014240     -0.084332
O	      2.08373      4.30664      4.01630        -0.037720      0.040207     -0.223148
O	      4.14301      6.29432      4.02852         0.037697      0.007385      0.038420
O	      4.15807      4.24318      6.36370        -0.122843     -0.001286     -0.008843
O	      6.31813      6.38785      6.19478         0.010031      0.270746      0.028887
O	      6.24871      4.12016      8.32688        -0.022703      0.027299     -0.023230
O	      8.53186      6.43501      8.38906        -0.038108      0.056505      0.012979
O	      2.14569      6.24412      6.16621         0.007755     -0.280701      0.038340
O	      4.26279      8.42710      6.35272         0.132410     -0.016452      0.035178
O	      4.25255      6.33545      8.45949        -0.004018     -0.025667     -0.056943
O	      6.33687      8.46056      8.48511         0.028180      0.009497      0.361078
O	      6.39548      6.50808     10.46938         0.001626      0.062557      0.000400
O	      8.33107      8.41568     10.38128        -0.018129      0.001410      0.013923
