# total energy = -241.89228086 eV
 
CRYSTAL
PRIMVEC
0.007798 6.405100 6.223842 
6.247103 -0.001796 6.233854 
4.172170 4.284356 -0.009182 
PRIMCOORD
36 1
Li	      4.21709      2.19780      2.14244        -0.003743     -0.015948     -0.005956
Li	      8.26912      4.31748      4.13705         0.089779      0.002952     -0.017865
Li	      6.14114      2.25885      4.16621         0.048521     -0.017913      0.007438
Li	     10.33761      6.45352      8.27714        -0.027699      0.030944     -0.026032
Li	      8.30567      4.41088      8.28846         0.044585      0.029504      0.015781
Li	      4.22843      4.18293      4.09137        -0.039038      0.019861     -0.026321
Li	      4.25270      2.14289      6.14655         0.030461      0.031977     -0.021037
Li	     10.35963      8.48328     10.34730         0.010107      0.030018     -0.034778
Li	      8.36287      8.52865      8.39422         0.004353     -0.011570      0.056399
Sc	      2.20033      2.12552      4.03411         0.104316      0.040730     -0.052976
Sc	      6.24569      6.38202      8.41249         0.098684     -0.000827      0.151303
Mn	     10.34051      4.33297      6.24038        -0.192360      0.024241     -0.086738
Mn	      2.13226      4.24529      6.22159         0.037016     -0.021146      0.069538
Mn	      4.17982      6.41288      6.23661         0.001203     -0.055630      0.016648
Cr	      8.31547      2.14859      6.22680        -0.029299      0.043371     -0.103580
Cr	      6.24729      4.24303      6.23169         0.028815     -0.148271      0.045173
Cr	      2.13248      6.42532      4.12691        -0.093689     -0.008930     -0.121540
Co	      6.24337     10.66560      8.28667         0.011806     -0.076169      0.249390
O	      2.06500      1.94062      2.00707        -0.009774     -0.047382     -0.022993
O	      4.28476      4.27748      1.91462         0.093060     -0.026934     -0.032355
O	      4.14701      2.14176      4.15031        -0.125243      0.018766     -0.066766
O	      6.26338      4.31253      4.06526        -0.014652      0.037378      0.117601
O	      6.31192      2.25704      6.22904         0.073229      0.026316      0.025506
O	      8.35796      4.13791      6.23978        -0.049295     -0.038343      0.018183
O	      2.10421      4.31248      4.28839         0.002296      0.004810      0.029190
O	      4.13023      6.42760      4.28057         0.019754     -0.037399      0.050130
O	      4.18203      4.43722      6.21354         0.000961     -0.010612      0.003842
O	      6.31996      6.34604      6.24250        -0.004370     -0.036784     -0.029509
O	      6.26042      4.35116      8.20137         0.023734      0.017058     -0.087050
O	      8.29797      6.40612      8.41796        -0.046843      0.034169      0.070212
O	      1.95685      6.46955      6.27413         0.036657      0.028798     -0.122221
O	      4.20960      8.40494      6.23083        -0.050437      0.062109      0.022036
O	      4.07978      6.39703      8.20834        -0.090762     -0.007946     -0.096162
O	      6.27074      8.63203      8.14252        -0.003327      0.097658     -0.095449
O	      6.31495      6.38759     10.48226         0.047902     -0.031363      0.033597
O	      8.35587      8.39401     10.48303        -0.026708      0.012506      0.067364
