# total energy = -99.09961869 eV
 
CRYSTAL
PRIMVEC
-0.000028 2.065441 2.065457 
17.587756 0.000002 -0.000168 
0.000022 2.065431 -2.065446 
PRIMCOORD
16 1
Li	      0.24977      2.06580     -2.06424         0.055927      0.000287      0.000800
Li	      1.98242      2.06569      0.00095        -0.079840      0.000353      0.001045
Li	      6.38903      2.06555      0.00086         0.044196      0.000164     -0.000200
Li	     11.03410      2.06551      0.00167         0.018200      0.000010     -0.003253
Ti	      8.83258      2.06547     -2.06459        -0.739712     -0.000119      0.002937
Ti	     13.03469      2.06544     -2.06450        -0.112500      0.000383      0.002811
Ni	      4.12776      2.06573     -2.06436         0.146620     -0.000162     -0.000524
Ni	     15.55781      2.06572      0.00152        -0.092374     -0.000307     -0.000433
O	     13.07524      2.06549      0.00131        -0.016342      0.000063     -0.001129
O	     15.01047      2.06566     -2.06395        -0.179385     -0.000335     -0.000247
O	      9.07238      2.06545      0.00118         0.020167      0.000450     -0.001883
O	     11.13351      2.06552     -2.06409         0.126910      0.000141      0.000411
O	      4.50623      2.06576      0.00117        -0.004968      0.000221      0.001674
O	      7.07250      2.06553     -2.06443         0.755886     -0.000176     -0.000830
O	     17.43769      2.06598      0.00139         0.217762     -0.001011     -0.001389
O	      2.19960      2.06579     -2.06437        -0.160549      0.000037      0.000209
