# total energy = -243.97320317 eV
 
CRYSTAL
PRIMVEC
0.032709 6.328213 6.335388 
6.406779 0.016009 6.351975 
4.273737 4.232180 0.008180 
PRIMCOORD
36 1
Li	      4.37284      8.37112      8.47389        -0.023957     -0.002730     -0.035237
Li	      6.36550      2.13818      4.20636        -0.028137      0.004102      0.013586
Li	      6.44065      6.28863      4.39505        -0.002157      0.025228      0.008903
Li	      4.30657      4.22696      4.39850         0.004317     -0.021466     -0.078031
Li	      6.24401      4.35657      6.25946         0.070765      0.025495      0.007553
Li	      4.30163      8.43308      4.29052         0.033508     -0.005009      0.010485
Li	      2.28264      4.15047      6.27476         0.049604      0.032128     -0.031147
Li	      4.42007      6.20273      6.29373        -0.000037      0.021637     -0.010320
Li	      4.33531      4.26854      8.29286         0.026838      0.050097     -0.015707
Sc	      6.45818     10.36123      8.51467        -0.024109     -0.000924      0.012388
Sc	      2.16593      4.19724      2.20647         0.009387     -0.046032      0.055063
Mn	      8.56702      8.45446     12.65658        -0.016095      0.012111      0.070296
Mn	      6.39969      2.20909      8.48653        -0.014407     -0.003220      0.073712
Mn	      6.37079      6.39869      8.42408         0.028278     -0.014966     -0.021871
Cr	      4.30124     10.50013      6.30448        -0.059728     -0.058653      0.029135
Cr	      8.50646      4.27419      4.24270         0.000060     -0.003371      0.021783
Cr	      4.26110      2.24847      6.28012         0.017831     -0.063161      0.031466
Fe	      2.22029      6.32367      4.28793        -0.049571      0.128621     -0.069505
O	      1.97709      2.10988      1.99640         0.038969     -0.007222     -0.014658
O	      4.27930      4.17629      1.98868        -0.007630      0.004127     -0.018006
O	      4.25031      2.02864      4.33741        -0.000430      0.003101     -0.044149
O	      6.51823      4.23414      4.19149        -0.005812      0.002774      0.011002
O	      6.42938      2.04566      6.47970         0.015330     -0.034814     -0.000371
O	      8.66522      4.36192      6.31085        -0.021728      0.020546     -0.020307
O	      2.15873      4.36664      4.17504         0.008006     -0.085322      0.035613
O	      4.19048      6.38805      4.07844         0.127426      0.015332     -0.012621
O	      4.31911      4.16904      6.32473         0.007030      0.045366     -0.022337
O	      6.54391      6.38239      6.46936         0.009509      0.008288     -0.008589
O	      6.51270      4.41881      8.42967        -0.032283     -0.011050      0.010156
O	      8.69106      6.39005      8.46861         0.000583      0.002064     -0.013390
O	      2.05193      6.27216      6.28288        -0.036375     -0.021545      0.105386
O	      4.07791      8.54515      6.33828        -0.009669     -0.039599     -0.003021
O	      4.24356      6.31954      8.56682        -0.025439      0.013127     -0.025349
O	      6.40590      8.34830      8.47126        -0.002309      0.024440     -0.013572
O	      6.43126      6.37867     10.56361        -0.072678     -0.048749      0.000236
O	      8.53484      8.46482     10.74535        -0.014891      0.029250     -0.038577
