# total energy = -246.35372588 eV
 
CRYSTAL
PRIMVEC
0.054471 6.413880 6.404857 
6.379679 0.010785 6.448930 
4.246935 4.299520 0.013357 
PRIMCOORD
36 1
Li	      2.26347      8.46936      6.29063        -0.079707     -0.018785      0.016436
Li	      2.30644      6.40099      8.49279        -0.044225      0.013689      0.013105
Li	      4.40012      8.31603      8.47988        -0.016239     -0.050184      0.005078
Li	      4.40876      6.29673     10.52669        -0.035689     -0.025790     -0.005840
Li	     10.54503      8.62453     10.86907        -0.012453     -0.018125     -0.000182
Li	      2.14328      6.52801      4.41210        -0.003260     -0.024942      0.033002
Li	      6.32434      8.62094      6.41755         0.013804      0.000754      0.001252
Li	      4.27580      6.49099      6.51189         0.045153     -0.045434     -0.012867
Li	      6.20428      6.54037      8.63878         0.079561     -0.061303     -0.048529
Sc	      2.11012      4.29801      2.22338        -0.020251      0.023732     -0.007477
Sc	      4.22897      2.18813      6.38417         0.037651     -0.068882     -0.026359
Mn	      6.49425      8.49904     10.62897        -0.124598      0.010024      0.145695
Mn	      4.27446      6.44354      2.19350         0.043326      0.028809     -0.022986
Mn	      6.45217      4.30633      6.39286         0.080789     -0.037293     -0.024584
Cr	      0.16050      6.24570      6.31112         0.029369      0.179566     -0.090262
Cr	      6.36201      6.44135      4.30492         0.061550     -0.034745      0.037944
Cr	      4.26222      4.35470      4.31877         0.090899     -0.021831      0.003730
Cr	      4.26268      4.37003      8.58811         0.066184     -0.031093     -0.081038
O	      1.97634      2.21026      2.26393         0.002980      0.079043      0.015736
O	      4.21192      4.48157      2.23592        -0.014195     -0.016481     -0.027129
O	      4.26947      2.28276      4.27155        -0.001726      0.075162      0.001978
O	      6.27155      4.40268      4.29541         0.008816      0.069629     -0.075507
O	      6.38712      2.07994      6.24880         0.008392     -0.088877     -0.041905
O	      8.64947      4.38533      6.55675         0.119172     -0.002973      0.044761
O	      2.25286      4.18212      4.27220        -0.040811      0.030173      0.007002
O	      4.35371      6.34938      4.35261        -0.020329      0.062064      0.040827
O	      4.27343      4.25755      6.42143        -0.054885      0.015575      0.013121
O	      6.45734      6.43340      6.32028         0.013599      0.063126     -0.008065
O	      6.37412      4.14208      8.55464        -0.053657      0.027462      0.077087
O	      8.67275      6.48284      8.53290        -0.032922      0.018108      0.002521
O	      1.94623      6.45716      6.44250        -0.089523     -0.046997     -0.002332
O	      4.25717      8.74315      6.46204         0.001146     -0.012612      0.006049
O	      4.30812      6.30631      8.53104        -0.002279      0.015436     -0.015843
O	      6.52564      8.51742      8.72979        -0.054688     -0.001023     -0.073879
O	      6.41735      6.36912     10.84745         0.003007     -0.065579      0.142590
O	      8.45661      8.58781     10.59422        -0.003961     -0.039405     -0.043128
