# total energy = -246.75940201 eV
 
CRYSTAL
PRIMVEC
-0.006697 6.202850 6.546946 
6.400513 -0.000822 6.542241 
4.277980 4.142233 -0.012123 
PRIMCOORD
36 1
Li	      2.02494      2.06939      0.15570         0.021323     -0.042758      0.058157
Li	      2.25143      0.08353      2.21827         0.029114      0.003696     -0.007976
Li	      4.15547      2.00770      2.35067         0.036889      0.003605      0.034819
Li	      8.33142      4.17006      4.24045         0.051641     -0.046965     -0.013489
Li	      6.44276      2.19098      4.39250        -0.004037     -0.030609     -0.021331
Li	      0.14635      2.05219      2.07360        -0.046212     -0.009278     -0.011565
Li	      2.29270      1.98042      4.23025        -0.015957      0.009034     -0.010885
Li	      6.47043      4.08904      6.34432         0.030554     -0.015720     -0.023047
Li	      4.30874      6.24655      6.64519         0.014148      0.021563     -0.005798
Sc	      4.43391      4.18346      4.29323        -0.066884      0.046627     -0.012076
Sc	      4.28960      1.98507      6.42827         0.002367      0.001494      0.021878
Mn	      4.29308      4.14588      0.06829        -0.052529      0.005765      0.013095
Mn	      2.14047      4.04301      2.16308        -0.036307      0.088997      0.005145
Mn	     10.63758      8.26408     10.91675        -0.008703      0.012136      0.021038
Mn	      8.51818      6.25966     10.93700        -0.013053     -0.054096      0.009486
Cr	      6.40108      8.29605      6.55939         0.010914     -0.006564     -0.016671
Cr	      4.24466      4.14526      8.69012         0.027128     -0.062918     -0.057428
Cr	      6.34464      6.20734      8.69279         0.079921      0.005416      0.007403
O	      2.12582      2.20627      2.23475        -0.036555     -0.034179     -0.033696
O	      4.11673      4.14610      2.25541        -0.004532     -0.010064      0.034318
O	      4.27432      2.13603      4.42354         0.027008     -0.023356     -0.000473
O	      6.37386      4.18775      4.35940         0.057470      0.016471     -0.037452
O	      6.36489      1.94226      6.56686        -0.008028      0.010110     -0.015249
O	      8.69176      4.08305      6.54048        -0.030510     -0.020345      0.010817
O	      2.18282      4.27590      4.50524         0.048617      0.016101      0.011774
O	      4.08023      6.32991      4.43496        -0.017447      0.059533      0.036216
O	      4.18799      4.13107      6.60258         0.004240      0.010947      0.010180
O	      6.42597      6.26551      6.66807        -0.030807     -0.036147      0.018523
O	      6.37990      4.15168      8.86169         0.014876     -0.015651      0.009308
O	      8.41059      6.13292      8.64920        -0.022401     -0.006148     -0.047837
O	      1.96324      6.17322      6.59983         0.016318      0.023357      0.017389
O	      4.38145      8.37689      6.37002        -0.039488     -0.041810      0.024727
O	      4.35842      6.11065      8.72658         0.004499      0.032390     -0.012145
O	      6.51859      8.19908      8.56723        -0.004391      0.070513      0.037484
O	      6.53139      6.08158     10.76676        -0.019775     -0.003986     -0.031015
O	      8.47753      8.16832     10.67768        -0.019409      0.022841     -0.023623
