# total energy = -210.23830865 eV
 
CRYSTAL
PRIMVEC
-0.032397 6.283958 6.264546 
6.349988 0.002160 6.229759 
4.228153 4.161322 0.006786 
PRIMCOORD
36 1
Li	      4.24106      4.04879      0.14070        -0.079807      0.022694      0.024241
Li	      2.20014      2.08140      0.09831        -0.016051      0.040742     -0.036112
Li	      2.10209      0.10583      2.01914         0.011848      0.099677     -0.010367
Li	      4.04352      2.19587      1.99579        -0.045264     -0.011767     -0.018279
Li	      2.22148      4.05653      2.07282         0.074398      0.018118     -0.052025
Li	      2.19010      2.06345      4.05207         0.035044     -0.007643     -0.128204
Li	      8.36940      6.30236      6.26074         0.028717     -0.081603      0.012577
Li	      6.32602      4.25160      6.23552         0.118503      0.023721     -0.004232
Li	      4.26159      6.31184      6.28347         0.004179      0.018041      0.032107
Sc	      6.29284      2.13299      4.22861         0.136577     -0.215442      0.287194
Sc	      0.10783      2.05015      1.96916         0.000246      0.057234     -0.233329
Ti	      2.16568      6.15852      4.27497         0.191403     -0.053605      0.174844
Co	      8.35313      4.24523      4.21451        -0.068568      0.137174     -0.526044
Cu	      4.21465      4.19357      8.29315         0.011069      0.110073     -0.046734
Ni	      4.22744      4.14631      4.15211        -0.104567      0.102597      0.164120
Ni	      4.21544      8.34177      4.22260         0.002398     -0.045507      0.046711
Ni	      6.29415      8.32475      6.30034        -0.128955      0.054504     -0.035750
Ni	      6.34096      6.27659      8.32011        -0.094624     -0.089440      0.064127
O	      2.07092      2.13093      2.02967         0.006044     -0.011113      0.047845
O	      4.21999      4.19622      2.15293         0.125988     -0.079103      0.024607
O	      4.23406      2.05372      4.13366        -0.201160     -0.630248      0.007967
O	      6.33664      4.17595      4.18874         0.551598      0.257457      0.025065
O	      6.31632      2.07158      6.20281        -0.048321      0.028738     -0.012693
O	      8.48668      4.14834      5.93465        -0.103591      0.001186      0.053083
O	      2.10607      4.25900      4.15909         0.063638      0.088479     -0.046565
O	      4.08414      6.25562      4.16117        -0.164155     -0.039806      0.045781
O	      3.99901      4.21348      6.28912         0.261037     -0.019719     -0.286661
O	      6.29246      6.38693      6.46509        -0.013850     -0.175217     -0.275624
O	      6.22602      4.29540      8.33267         0.024843     -0.027487     -0.049678
O	      8.44012      6.34223      8.42197         0.113745     -0.154439      0.135933
O	      2.06386      6.18321      6.14123         0.018025      0.069485     -0.274318
O	      4.39380      8.33441      6.21598        -0.164144     -0.053507      0.134519
O	      4.23354      6.18359      8.60732        -0.230010      0.075921      0.170754
O	      6.44289      8.22386      8.34702        -0.079634      0.090906      0.107048
O	      6.41184      6.24902     10.25081        -0.127993      0.125398      0.180252
O	      8.45883      8.28520     10.37208        -0.108605      0.273503      0.297837
