# total energy = -210.50678879 eV
 
CRYSTAL
PRIMVEC
0.008054 6.309974 6.179774 
6.285608 -0.007861 6.195295 
4.188432 4.215041 -0.002873 
PRIMCOORD
36 1
Li	     10.38739      4.28758      6.28323        -0.059226      0.015879     -0.017729
Li	      8.35569      2.13247      6.24801         0.004553     -0.002067     -0.064202
Li	      6.21664      4.21413      2.03132        -0.009912     -0.021424     -0.001538
Li	      2.18537      4.20386      2.04172         0.027771      0.037636      0.007564
Li	      4.17773      4.20163      4.14034         0.003984      0.037782      0.040410
Li	      4.22377      2.10695      6.21328        -0.050844      0.027998      0.041187
Li	      2.22963      4.19831      6.23611         0.089161     -0.015279     -0.042786
Li	      4.17159      6.22348      6.25539        -0.017984     -0.081805      0.000504
Li	      8.32905      8.41589      8.19319        -0.018988     -0.005088     -0.032655
Sc	      2.17316      2.13260      4.11724        -0.083715      0.012750      0.260033
Sc	      6.21312      4.14094      6.27358        -0.050002      0.120861     -0.118145
Ti	      4.14068      8.44171      4.24577         0.057442     -0.093352      0.420611
Co	      2.11360      6.29099      4.16364         0.057544     -0.018565      0.239052
Cu	      4.20022      8.47461      8.17007        -0.010796      0.011097     -0.082015
Cu	      6.27617      6.33519      8.19676         0.208901     -0.094670     -0.133030
Ni	      6.28095      2.12226      4.14020         0.160370      0.018364      0.110324
Ni	      4.18870      0.02137      4.12752         0.011381     -0.161389      0.020066
Ni	      4.19401      6.21422      2.00124        -0.072911      0.114297      0.088116
O	      4.27658      6.35768      8.37018        -0.172077      0.062635     -0.210545
O	      6.14616      8.34727      8.27850        -0.080757      0.090755     -0.132406
O	      2.20077      2.09643      2.05708         0.068236      0.041765     -0.063429
O	      4.21119      4.21180      2.05849         0.018525     -0.166841      0.015519
O	      4.23499      2.05921      4.06776        -0.045249      0.199194     -0.078494
O	      6.39559      4.20582      4.12550        -0.183742      0.097934      0.017166
O	      6.27644      2.07901      6.22124         0.038249     -0.009481     -0.026158
O	      8.36485      4.21803      6.00510        -0.020953      0.008642      0.267170
O	      1.95087      4.22559      4.13241        -0.099069     -0.076314     -0.031740
O	      4.20098      6.44170      4.02444         0.051871      0.064650     -0.011339
O	      4.21502      4.21249      6.18392         0.049468     -0.039155      0.050761
O	      6.29790      6.28565      6.22673         0.013412      0.027825     -0.200809
O	      6.30635      4.22090      8.34108         0.013596     -0.072747      0.042116
O	      8.35648      6.30335      8.50178        -0.040112     -0.002956     -0.056219
O	      2.11045      6.31005      5.88566        -0.014327     -0.003245     -0.098603
O	      4.17136      8.42071      6.07836        -0.029161     -0.016136     -0.262678
O	      6.26830      6.25294     10.21631         0.049012     -0.062150      0.088797
O	      8.42844      8.39737     10.29009         0.136351     -0.047401     -0.044874
