# total energy = -212.04937191 eV
 
CRYSTAL
PRIMVEC
0.024874 6.256081 6.293989 
6.275316 0.034601 6.284151 
4.195884 4.176792 0.010472 
PRIMCOORD
36 1
Li	      0.07368      6.20340      6.24043         0.010206      0.040646      0.004897
Li	      8.32751      4.17050      4.19160        -0.009973     -0.015941     -0.024626
Li	      6.24025      2.22299      4.20666         0.056714      0.007229      0.032865
Li	     10.43675      6.34329      8.47568        -0.034554     -0.014288     -0.023126
Li	      6.17178      6.21370      4.25252        -0.020418     -0.005156     -0.047652
Li	      4.34979      4.20919      4.22414         0.003423      0.018097     -0.013566
Li	      2.20047      6.28337      4.19787        -0.005883     -0.015601      0.027302
Li	      4.20433      6.21435      6.22120        -0.022336     -0.040751      0.015514
Li	      8.43050      8.31728      8.41390         0.004312     -0.020965     -0.011962
Sc	      2.07922      8.23726      6.24378        -0.129955     -0.020406      0.130664
Sc	      2.15950      4.17099      2.17788         0.096518     -0.094291     -0.052113
Ti	      6.26861      6.31962      8.44990        -0.049786      0.084975      0.249066
Co	      4.18056      2.10295      2.23416        -0.144160      0.047050     -0.147250
Cu	      6.25076      4.20750      6.16605        -0.131857      0.035262      0.147175
Cu	      4.19221      8.30528      4.21006         0.004905      0.204243      0.032737
Cu	      2.14570      4.20897      6.26593         0.089551      0.007281     -0.047729
Ni	      6.28340      4.18389      2.17835         0.053904      0.031099     -0.093921
Ni	      4.22191      2.10950      6.21813         0.143167     -0.040022     -0.089458
O	      4.18237      6.47915      4.19821         0.009457     -0.174300      0.038034
O	      6.30431      6.11452     10.34055        -0.001002      0.044175     -0.181332
O	      2.08498      2.07817      2.09456        -0.018680      0.093026      0.042390
O	      4.20332      4.09282      2.19625        -0.061082     -0.006858      0.015898
O	      4.22288      2.09135      3.98983         0.021282     -0.003010     -0.024720
O	      6.30918      4.19341      4.22378         0.015417      0.047147      0.185179
O	      6.26417      2.15155      6.22650         0.070735     -0.175429     -0.044591
O	      8.28864      4.19561      6.31311         0.097246     -0.023518     -0.004511
O	      1.90924      4.17630      4.28340         0.031236     -0.035466      0.014095
O	      4.25037      4.14625      6.20038         0.082677      0.168475     -0.072001
O	      6.35687      6.35326      6.33667        -0.168770     -0.021697      0.001618
O	      6.27038      4.36078      8.16107        -0.081106      0.004669     -0.192834
O	      8.26590      6.25637      8.33768        -0.096984      0.030638      0.107913
O	      2.10078      6.19272      6.38743         0.027066      0.044729     -0.053717
O	      4.20302      8.38602      6.65784        -0.051149      0.003499      0.099468
O	      4.27046      6.40304      8.40470         0.196306     -0.031971      0.010067
O	      6.35085      8.30728      8.32671         0.072284     -0.175650      0.062589
O	      8.59302      8.35180     10.50153        -0.058711      0.003080     -0.092359
