# total energy = -214.31703425 eV
 
CRYSTAL
PRIMVEC
0.051968 6.255544 6.315310 
6.225690 0.054758 6.313300 
4.184761 4.203147 0.002081 
PRIMCOORD
36 1
Li	      6.26901      6.36176     12.53651        -0.012142      0.013921     -0.022978
Li	      6.27124      2.13893      4.27950         0.039538      0.052916      0.039808
Li	      6.21242      2.17378      8.40723        -0.014676      0.012043     -0.065436
Li	      2.07788      4.19014      2.15520         0.086490     -0.156715     -0.003560
Li	      6.21047      6.35201      4.27299        -0.039286      0.019595     -0.051343
Li	      4.17884      4.26479      4.21817         0.056293      0.057283     -0.081467
Li	      6.28510      4.20569      6.26319         0.018650     -0.100571     -0.056980
Li	      8.33960      6.29507     10.47614        -0.087450      0.003081     -0.030381
Li	      6.35106      6.24937      8.45815         0.008847     -0.004169      0.060735
Sc	      4.19561      2.10747      2.16823         0.004547      0.044586     -0.037192
Sc	      4.19968      2.05813      6.27241         0.275551      0.057387      0.242093
Ti	      6.16668      4.28338      2.19199        -0.218426      0.152384      0.429629
Co	      4.23619      6.28553      6.29586         0.719560     -0.659739     -0.624417
Co	      4.24140      4.17169      8.41943        -0.373311      0.087567     -0.013840
Cu	      0.05336      4.15734      4.20449        -0.204846      0.006087     -0.273535
Ni	      8.22899      2.17177      6.29242        -0.122031      0.175564      0.037366
Ni	      8.37329      4.22722      4.28004        -0.103524     -0.043532     -0.145360
Ni	      2.10674      4.20424      6.22852         0.028564      0.105000      0.007263
O	      1.94847      4.21069      4.20175         0.130738     -0.041468     -0.071781
O	      6.22911      6.12176     10.50996         0.248662     -0.147699      0.045359
O	      2.12655      2.00920      2.06349         0.055173     -0.229856      0.087512
O	      4.28897      4.15174      2.11369         0.289651     -0.029460      0.078366
O	      4.18896      2.09412      4.18313        -0.026089      0.136909     -0.007016
O	      6.32945      4.22057      4.03861        -0.168906      0.084111     -0.224871
O	      6.23255      2.11896      6.26634        -0.119388      0.025446     -0.032638
O	      8.30977      4.23035      6.34280        -0.079105      0.044721      0.090714
O	      4.20049      6.40498      4.39828        -0.013434      0.238510     -0.894321
O	      4.19199      4.30405      6.43551        -0.032008     -0.922327      0.169517
O	      6.20950      6.35717      6.33323         0.118111     -0.163811      0.145658
O	      6.03695      4.20511      8.47704         0.187624      0.047021     -0.061219
O	      8.35217      6.55355      8.41455        -0.018665      0.019843     -0.189041
O	      2.27857      6.28770      6.41940        -0.600208     -0.107728      0.195896
O	      4.18220      8.22295      6.32123         0.054950      1.272423      0.305179
O	      4.16066      6.17185      8.32558        -0.064492      0.088676      0.926112
O	      6.41780      8.48317      8.38182        -0.116769      0.066937      0.002206
O	      8.48642      8.43480     10.38512         0.091805     -0.204934      0.023964
