# total energy = -214.11096597 eV
 
CRYSTAL
PRIMVEC
0.016095 6.225685 6.494076 
6.198751 0.001423 6.507648 
4.125494 4.152700 0.006786 
PRIMCOORD
36 1
Li	      6.21485      6.22377     12.79050        -0.025206     -0.084872      0.151902
Li	      8.30565      8.24235     12.88142         0.027381      0.047935      0.127854
Li	      8.33715     10.20288     11.04793        -0.141409      0.143601      0.096230
Li	      4.20668      2.06352      6.53002        -0.070793      0.048272     -0.032998
Li	      6.20332      4.13318      6.51407        -0.084771      0.097997     -0.048282
Li	     10.12223      8.34339     10.97658         0.257228     -0.139222      0.003247
Li	      2.05660      6.27731      4.44977         0.102013     -0.241315      0.032942
Li	      2.04832      4.21574      6.49660         0.145862     -0.018993     -0.184068
Li	      8.26507      8.28999      8.97109        -0.010497      0.011428     -0.196063
Sc	      8.26772      4.15686      8.46839         0.367989     -0.040994      0.388398
Sc	      6.25624      6.21959      4.44137        -0.089104      0.499711     -0.061031
Ti	      6.14286      6.29623      8.78924         0.008453      0.073331     -0.484047
Co	      6.14765      2.14772      8.58653         0.082888     -0.282051      0.253870
Co	      4.13759      4.19051      4.29762         0.073672      0.172368     -0.594274
Cu	      6.22501      2.08444      4.41366        -0.334582      0.303697     -0.014662
Cu	      4.09977      6.23611      6.45317         0.092710     -0.409343     -0.274376
Ni	      2.16220      6.16473      8.59412        -0.269194      0.038349      0.115590
Ni	      4.17481      8.27045      8.55140        -0.126686      0.277022      0.079602
O	      2.24157      6.19507      6.57790        -0.165901      0.062109     -0.159059
O	      4.11938      8.12697      6.52894        -0.050955      0.162935     -0.148914
O	      8.11067      8.27985     10.92311        -0.383157     -0.025200     -0.017603
O	      2.08343      2.04102      2.27735        -0.191001      0.008910     -0.062165
O	      4.19028      4.12513      2.33234        -0.068858      0.139728     -0.393646
O	      4.22562      2.25193      4.35616         0.492304     -0.269916      0.042223
O	      6.07229      4.09655      4.25435         0.616133     -0.722214      0.104114
O	      6.20970      2.07435      6.84526        -0.014966      0.052578      0.025684
O	      8.29491      4.18456      6.52231         0.006349     -0.042778     -0.099640
O	      2.26173      4.13109      4.22358        -0.549202     -0.335312      0.072107
O	      4.14191      6.13516      4.03429        -0.009660      0.158970     -0.210485
O	      4.14392      4.34398      6.10688         0.000022      0.117166      0.786130
O	      6.02740      6.21437      6.51343         0.060850     -0.000319      0.189925
O	      6.19383      4.24293      8.73108        -0.145963      0.148520      0.096820
O	      8.16431      6.24763      8.60174        -0.089330      0.086521      0.040537
O	      4.22330      6.24662      8.79126         0.320525     -0.166263      0.015677
O	      6.19970      8.21012      8.56104         0.127933     -0.363496      0.141239
O	      6.21538      6.30830     10.71875         0.038926      0.491142      0.217220
