# total energy = -213.46169084 eV
 
CRYSTAL
PRIMVEC
0.034290 6.183542 6.394998 
6.310089 0.028440 6.401104 
4.206722 4.126827 0.018984 
PRIMCOORD
36 1
Li	      2.14818      2.05664      0.19770        -0.013662     -0.079794     -0.025395
Li	      2.09669      0.05191      2.14603         0.046022     -0.075859     -0.116372
Li	      4.09307      2.10958      2.06992        -0.006393     -0.062006     -0.049561
Li	      0.10985      1.99423      2.09236        -0.179466      0.086501     -0.061012
Li	      2.13613      2.06133      4.17238        -0.029539      0.005700     -0.004403
Li	      4.22927      2.09558      6.40807         0.092929      0.031943      0.227787
Li	      2.17790      6.13794      4.28827         0.053532      0.066126     -0.114743
Li	      6.34519      8.18170      6.55756         0.067112      0.103901      0.122294
Li	      6.31164      6.25389      8.41416         0.137874     -0.025353      0.002405
Sc	      6.38280      4.19167      6.44386        -0.222173     -0.272963      0.304256
Sc	      0.09236      4.08883      4.28128        -0.210273     -0.051548     -0.209102
Ti	      6.22725      8.21578     10.59553         0.378510     -0.218120     -0.013198
Co	      0.23281      6.20142      6.46477        -0.844977      0.270658     -0.029501
Co	      8.38893      8.20469      8.53111        -0.254520      1.137553      0.148794
Cu	      4.21954      6.23334     10.59455         0.042117     -0.063012      0.000671
Cu	      2.15621      4.05412      2.11362        -0.206368      0.274789     -0.169088
Cu	      4.13290      4.16998      4.23052        -0.020259     -0.148447     -0.042476
Cu	      4.20305      6.22632      6.45859        -0.068820     -0.177904      0.250966
O	      8.46883      6.45116      8.52612         0.136361     -1.338522      0.015759
O	      2.04726      6.17792      6.46672         0.470955     -0.234000      0.033178
O	      4.21450      5.96555      8.49411        -0.037421      0.620000      0.087747
O	      2.09150      2.11367      2.15701        -0.012025      0.052790      0.004663
O	      4.09456      4.15628      2.02542         0.477641     -0.055540     -0.283067
O	      4.28334      2.01192      4.23823        -0.157709      0.112645     -0.006137
O	      6.11560      4.02543      4.32048         0.135016      0.236541     -0.198868
O	      6.35495      2.07938      6.23470         0.109002     -0.167133     -0.174347
O	      8.48852      4.18765      6.42231         0.112889     -0.099326     -0.078710
O	      2.17613      4.13728      4.09703         0.125868     -0.102208      0.048785
O	      4.16065      6.16838      4.45339         0.074915      0.079030     -0.003363
O	      4.21113      4.20262      6.55394         0.040308     -0.005683      0.244547
O	      6.23267      6.19284      6.40734         0.000477      0.229375     -0.013595
O	      6.41618      4.15568      8.54738        -0.385488      0.007267      0.041914
O	      4.24474      8.25268      6.37330         0.036934      0.026933      0.075672
O	      6.34876      8.21664      8.72110         0.432471      0.073851      0.051280
O	      6.43004      6.25863     10.79113        -0.178739      0.120106      0.193331
O	      8.40964      8.41348     10.53079        -0.143099     -0.358293     -0.261111
