# total energy = -212.97396649 eV
 
CRYSTAL
PRIMVEC
0.018039 6.185240 6.374763 
6.086397 0.013475 6.378759 
4.082666 4.151116 -0.016168 
PRIMCOORD
36 1
Li	      1.98883      2.08516      0.14112         0.021811     -0.012093      0.035490
Li	      6.09305      4.13986      2.21143         0.071851      0.006351      0.019927
Li	      4.08472      2.10825      2.23884         0.020523     -0.064990      0.045093
Li	      4.06387      6.14610     10.52583        -0.053874      0.081041     -0.028223
Li	      6.16393      8.26344     10.52557         0.009652     -0.081035     -0.000929
Li	      2.03839      1.98035      4.12535         0.071448     -0.014073      0.003808
Li	      8.11862      6.26054     10.62111        -0.041883      0.063372      0.005254
Li	      6.10238      8.30636      6.47102        -0.034885      0.008464      0.082397
Li	      6.06547      6.32130      8.48068        -0.018110      0.000027      0.018035
Sc	      3.99086      2.05353      6.26721        -0.015437     -0.131811     -0.188130
Sc	      0.10138      4.17487      4.24120        -0.024034     -0.005123      0.038980
Ti	      3.96810      6.26369      6.46958        -0.095318      0.161177      0.090818
Co	      0.08289      6.18490      6.38147         0.046157      0.061015     -0.234912
Co	      8.09273      8.28411      8.51172        -0.094165      0.216699      0.144184
Ni	      0.02420      2.04012      2.09603        -0.104387      0.093900      0.072043
Ni	      2.08041      4.08521      2.09979        -0.093385      0.110799     -0.023852
Ni	      4.08076      4.15488      4.19228         0.324820     -0.093927     -0.155543
Ni	      6.13796      4.11272      6.29301         0.102424     -0.084056      0.050389
O	      1.87263      2.09959      2.12998         0.165162     -0.155639      0.059617
O	      4.07810      4.23492      1.97543         0.152516     -0.109209      0.173566
O	      4.05630      2.24770      4.23167        -0.150857     -0.774932      0.140249
O	      5.96027      4.12078      4.32035         0.503631      0.148455     -0.140062
O	      6.10584      1.96292      6.42518        -0.058270     -0.038968     -0.087582
O	      8.23548      4.15648      6.40034         0.067888     -0.057401     -0.006608
O	      2.15752      4.16236      4.13493        -0.580627      0.073125      0.043731
O	      4.07631      6.11724      4.37872        -0.037684      0.683886      0.194322
O	      4.08115      4.19278      6.52180        -0.112562     -0.023169     -0.162632
O	      6.01198      6.16127      6.41643        -0.019368      0.147652      0.003693
O	      6.04100      4.05422      8.46480        -0.125077     -0.017709      0.006053
O	      8.25233      6.31419      8.44871        -0.054741      0.048445     -0.011507
O	      2.07114      6.20246      6.38271         0.128262     -0.029715     -0.022625
O	      4.09410      8.22067      6.35694        -0.013247     -0.062634      0.024877
O	      4.05541      6.10021      8.40106         0.042070     -0.100980     -0.148885
O	      6.31085      8.24590      8.48509         0.075322      0.002267      0.001426
O	      6.12255      6.18149     10.83365         0.021834      0.026343      0.174132
O	      8.20952      8.30278     10.33806        -0.097462     -0.075553     -0.216594
