# total energy = -216.42772349 eV
 
CRYSTAL
PRIMVEC
0.056247 6.277354 6.309892 
6.249348 0.048276 6.318641 
4.190199 4.214163 0.007597 
PRIMCOORD
36 1
Li	      2.21140      8.35102      6.40184        -0.065059      0.002225     -0.034684
Li	      2.16953      6.31392      8.32782         0.061014     -0.027565     -0.001774
Li	      6.23771      2.15456      4.17786         0.030978      0.057713      0.062654
Li	     10.32226      6.32432      8.51748        -0.054455      0.149949      0.013119
Li	      8.35045      4.31229      8.37277        -0.136438      0.022951      0.014208
Li	      4.18947      4.19901      4.23015         0.059609      0.026480      0.056231
Li	      8.43889      6.38757     10.48018        -0.000425      0.017945     -0.050929
Li	      4.05560      6.29734      6.33209         0.040122     -0.038789     -0.054806
Li	      8.34653      8.32321      8.42465         0.099462     -0.029553      0.003328
Sc	      4.26457      6.23030     10.44983        -0.166614     -0.196287      0.128391
Sc	      2.05021      2.16178      4.11869        -0.193301     -0.117815      0.229362
Ti	      4.27326      4.24074      0.21543         0.149341      0.243998      0.178087
Co	      6.17074      4.11559      6.39275         0.050933      0.698573     -0.241436
Co	      6.29703      8.43617      6.33861         0.016660      0.092778     -0.058710
Co	      6.32179      6.34373      8.37442         0.128792     -0.393367     -0.154301
Cu	      4.23923      8.38284      8.42239         0.000071     -0.041582      0.129434
Cu	      8.37204      6.34651      6.36499         0.126433     -0.011730      0.040258
Ni	      0.04565      4.18386      4.20004        -0.098190     -0.090322     -0.492791
O	      8.24056      6.33332      8.33968        -0.191493     -0.014918      0.067049
O	      2.21037      2.08412      2.13790         0.073669     -0.026614     -0.042745
O	      4.22087      4.20114      2.04883         0.022581     -0.099140     -0.295631
O	      4.17820      2.09962      4.34290         0.039956     -0.000226     -0.213156
O	      6.29235      4.24991      4.48059        -0.001026     -0.239744     -0.053191
O	      6.22735      2.06605      6.35058         0.192060      0.183028      0.079270
O	      8.49641      4.27527      6.29963        -0.244732     -0.184769      0.032602
O	      2.00383      4.22021      4.35273         0.360790     -0.039400      0.224689
O	      4.21310      6.47375      4.19375         0.094505     -0.352246      0.058105
O	      4.11051      4.13000      6.30500         0.592930      0.075661      0.022926
O	      6.36430      6.44444      6.43842        -0.301846     -0.196086     -0.109559
O	      6.29203      4.39047      8.20704        -0.041694     -0.196088      0.155566
O	      2.04073      6.18046      6.33600        -0.226713     -0.130521      0.069338
O	      4.36036      8.54720      6.21422        -0.002391      0.176026      0.422022
O	      4.33230      6.37172      8.38432        -0.052486      0.108191     -0.039284
O	      6.24194      8.30052      8.30440        -0.054395      0.108820     -0.157515
O	      6.33643      6.20179     10.37427        -0.008335      0.319220     -0.029648
O	      8.55761      8.42593     10.51179        -0.300314      0.143204      0.043521
