# total energy = -216.75013906 eV
 
CRYSTAL
PRIMVEC
-0.054098 6.409783 6.212313 
6.207825 0.013064 6.143709 
4.175590 4.265419 -0.029021 
PRIMCOORD
36 1
Li	      4.20200     10.61798      6.27008         0.116072     -0.157751      0.015211
Li	      8.27166      2.21665      6.12558         0.220056     -0.031270     -0.029384
Li	      6.06111      4.44229      2.01116        -0.024710     -0.091066     -0.083610
Li	      4.11873      2.06774      2.06969         0.144260      0.063416     -0.101998
Li	      8.27551      4.30661      4.15234         0.022293      0.089930      0.097391
Li	      4.27594      6.19544      2.00933        -0.050989      0.006395     -0.012155
Li	      4.23091      4.21041      4.08680        -0.033987     -0.097711      0.113687
Li	      4.10940      2.09445      6.09122        -0.016277      0.063277     -0.042843
Li	      4.09032      6.46957      6.14528        -0.038095      0.040767     -0.065838
Sc	      2.19666      4.19374      2.02763         0.021928      0.118324     -0.011153
Sc	      4.10437      4.39269      8.19207        -0.153398     -0.102394     -0.721503
Ti	      6.15737      2.20303      4.25775        -0.593409      0.000000      0.382143
Co	     10.29688      8.57788     10.29927         0.103803     -0.140770      0.350306
Co	      6.16199      8.52013      6.09791         0.377179      0.379883      0.237348
Co	      6.16230      6.46837      8.18277        -0.026949      0.118763     -0.204891
Cu	      6.22135      6.30291      4.09714        -0.086284      0.333666      0.275857
Cu	      6.20108      4.25360      6.13856        -0.407337     -0.004056      0.100628
Cu	      2.07429      6.44165      4.16053         0.042444     -0.163330      0.322670
O	      3.92905      6.68232      4.09034         0.157807     -0.016718     -0.117466
O	      2.07871      6.12853      6.03751        -0.081940      0.448955     -0.068090
O	      2.05608      2.13644      2.17319        -0.038279     -0.094538      0.244934
O	      4.13174      4.27175      2.07448        -0.119861      0.053223      0.067808
O	      4.34994      2.07835      4.09648         0.578075     -0.042579      0.031454
O	      6.21365      4.18856      4.14857         0.126154      0.111596     -0.272049
O	      6.24541      2.00701      6.05914         0.043270      0.016564     -0.354027
O	      8.13625      4.29623      6.19251         0.125959     -0.060408      0.026132
O	      1.83811      4.07119      4.23043        -0.004125     -0.068910     -0.370529
O	      4.05618      4.25943      6.13613         0.497496     -0.011239      0.181545
O	      6.23369      6.64201      6.10717        -0.097279     -0.705114      0.108170
O	      6.18399      4.49959      8.24586         0.076847      0.095521      0.114346
O	      8.17301      6.45942      8.34461        -0.370613     -0.061828     -0.062969
O	      4.28997      8.55491      6.02538        -0.626711      0.035246     -0.157201
O	      4.28640      6.43970      8.19900         0.443164      0.023818      0.099614
O	      6.19393      8.44510      8.12771        -0.012485     -0.164075      0.119825
O	      6.36667      6.37688     10.25804        -0.251771      0.097657     -0.290032
O	      8.29239      8.70716     10.28345        -0.062308     -0.083244      0.076671
