# total energy = -215.94903759 eV
 
CRYSTAL
PRIMVEC
0.016658 6.337141 6.176864 
6.355007 0.003937 6.190053 
4.224498 4.221222 0.015076 
PRIMCOORD
36 1
Li	     10.48713     10.50953     12.32600        -0.024418     -0.005706     -0.008150
Li	      4.38441      6.27380     10.32966        -0.002243      0.085943     -0.046498
Li	      8.49124      4.33199      8.23715         0.052263     -0.025985     -0.003253
Li	      2.06380      2.25308      4.13799         0.100667      0.060268      0.014185
Li	      4.12830      4.28849      4.13199        -0.060383     -0.078232     -0.001703
Li	      8.47256      6.31367      6.25759        -0.015865     -0.002842     -0.083826
Li	      6.41371      4.31854     10.28105         0.044594      0.009840     -0.053951
Li	      2.10915      6.25569      4.13500         0.013704     -0.045817      0.114206
Li	      6.42571      6.22647      8.34715        -0.066433     -0.038410      0.043845
Sc	      6.37335      8.25244     10.35140        -0.362770      0.080220     -0.052696
Sc	      6.44010      4.33788      6.18021         0.005401      0.027820     -0.225894
Ti	      6.26847      4.28305      2.13236        -0.053863      0.169889      0.433561
Co	      4.18888      2.12876      2.12826         0.381805      0.028389     -0.825182
Co	      2.13567      4.20284      6.13919         0.050842     -0.005905     -0.249467
Co	      8.55176      8.26133      8.33071        -0.008039      0.160245      0.048755
Ni	      8.53138      8.54490     12.28408         0.042782     -0.023816      0.094859
Ni	      4.21440      6.34391      2.11400         0.098287      0.048831      0.337671
Ni	      4.22173      6.33348      6.13233         0.106943     -0.043936      0.077690
O	      2.12993      2.00690      1.96083        -0.008967     -0.226387      0.075858
O	      4.33961      4.22536      2.03709         0.223555     -0.091056      0.039290
O	      4.23860      2.09190      3.93128        -0.105103     -0.078368      0.012756
O	      6.34526      4.17877      4.01656         0.000396     -0.003532     -0.330093
O	      6.40264      2.20052      6.20978        -0.085390      0.027471     -0.100648
O	      8.41182      4.23823      6.21242        -0.004624      0.111888     -0.006433
O	      2.13794      4.22447      4.35690        -0.084822      0.035104      0.292636
O	      4.26242      6.31758      4.24746        -0.032225      0.057689     -0.527070
O	      4.09861      4.25578      6.25408         0.051863     -0.168660      0.045855
O	      6.28174      6.47870      6.21803         0.078913      0.162736      0.060739
O	      6.31041      4.20433      8.22664        -0.126251     -0.008287      0.102382
O	      8.53259      6.43330      8.25981        -0.094785      0.068655      0.006229
O	      2.20780      6.17978      6.23566        -0.202034     -0.148768      0.021710
O	      4.36205      8.39016      6.31194        -0.133453      0.114038      0.560991
O	      4.10610      6.31856      8.06412        -0.056231     -0.004975      0.396914
O	      6.35557      8.54750      8.15658        -0.014990     -0.099290      0.012561
O	      6.35619      6.34013     10.29704         0.082232     -0.096643      0.037397
O	      8.43385      8.48126     10.27801         0.208643     -0.052413     -0.315224
