# total energy = -222.15935681 eV
 
CRYSTAL
PRIMVEC
-0.004824 6.251805 6.241641 
6.245584 -0.026188 6.262861 
4.151656 4.169722 -0.005988 
PRIMCOORD
36 1
Li	      4.13941     10.40833      6.23389         0.034660     -0.044838     -0.011309
Li	      4.13378      2.07384      2.12459         0.000157     -0.036522     -0.007752
Li	      4.08395      6.25920      2.27019        -0.131350     -0.026957      0.005684
Li	      6.03446      6.28222      4.01432        -0.034844     -0.019364      0.015450
Li	      4.10268      4.29820      4.21639        -0.053542     -0.011626     -0.038641
Li	      4.24470      2.06647      6.31312        -0.053585      0.007559      0.048430
Li	      2.18263      6.16517      4.04813         0.022737      0.008104     -0.039665
Li	      4.17653      6.16914      6.11220         0.031806     -0.009071      0.068476
Li	      4.12905      4.19970      8.33525         0.093074      0.035911     -0.019676
Sc	      2.15948      8.28722      6.26996         0.007353     -0.093051     -0.047858
Sc	      2.12967      4.13064      6.19205        -0.054340     -0.054169     -0.110415
Ti	      4.21022      0.13295      4.10178         0.059656      0.230567     -0.631401
Co	      5.86098      4.18917      2.08605        -0.044107      0.129644      0.006686
Co	      6.27391      8.37062     10.37776        -0.039593      0.147860      0.078164
Co	      2.07815      4.13823      2.10364         0.074123      0.219534      0.193307
Co	      6.14273      4.16101      6.26186        -0.121346     -0.032046      0.178952
Co	      6.30805      6.19769      8.34311        -0.237166     -0.345637      0.053655
Ni	      4.16957      8.18332      4.12362        -0.032962      0.086914      0.099553
O	      2.10491      2.07659      2.07322        -0.027028      0.017901     -0.065769
O	      4.07300      4.20145      2.08943         0.004439     -0.007495     -0.073589
O	      4.31955      1.99912      4.19326         0.028491     -0.280605     -0.014150
O	      6.35178      4.09045      4.07759         0.114908     -0.062878     -0.048928
O	      6.26346      2.25058      6.06577         0.025648      0.127539     -0.161250
O	      8.30447      4.14133      6.28751        -0.329186     -0.047667     -0.058437
O	      2.04740      4.11983      4.07506         0.175391     -0.048695      0.165303
O	      4.10035      6.25005      4.17676         0.039713     -0.224764      0.028367
O	      4.16828      4.11647      6.29160         0.441339     -0.012502     -0.023186
O	      6.21796      6.08105      6.42457         0.017468      0.011695      0.291342
O	      6.42020      4.06705      8.35240        -0.060568      1.120161     -0.235488
O	      8.14899      6.01947      8.35598         0.243611     -0.009479     -0.085135
O	      2.04584      6.21936      6.38190        -0.054788     -0.012667      0.056173
O	      4.19211      8.35832      6.17015        -0.015924      0.029373      0.186821
O	      4.36111      6.26452      8.47161        -0.086115      0.021497      0.302022
O	      6.24676      8.45636      8.41639         0.091685     -0.826138     -0.092147
O	      6.20992      6.39586     10.34047         0.016589     -0.052210     -0.078513
O	      8.26651      8.45856     10.41013        -0.146402      0.064124      0.064926
