# total energy = -99.83813718 eV
 
CRYSTAL
PRIMVEC
0.000027 2.224853 2.224638 
3.674315 -0.000154 0.000177 
0.000435 10.282182 0.000004 
PRIMCOORD
16 1
Li	      3.67269      0.29975     -0.29719         0.001652      0.010985     -0.012711
Li	      1.83554      2.09454      0.13059        -0.001489     -0.010556      0.012128
Li	      1.83584      4.42104     -2.19666         0.000870      0.019060     -0.014031
Li	      3.67308      8.25961     -8.25385        -0.000198     -0.016793      0.013496
Ti	      3.67216      7.21195     -2.76433         0.003958     -0.208357      0.214078
Ti	      1.83548      7.69377     -5.46264        -0.001144      0.195903     -0.198156
Ni	      3.67270      2.14509     -2.14463         0.001824      0.117338     -0.112306
Ni	      1.83590     10.53370     -8.30401         0.000330     -0.117425      0.110787
O	      3.67239      7.23247     -5.00385         0.004385      0.058333     -0.058645
O	      1.83562      7.32196     -7.31684        -0.002001     -0.207308      0.209526
O	      3.67230      5.35863     -3.13379        -0.003134      0.213680     -0.217539
O	      1.83545      5.44834     -5.44690        -0.005283     -0.052838      0.052375
O	      3.67269      2.43327     -0.20731        -0.000367     -0.158113      0.154572
O	      1.83559      2.68516     -2.68487         0.000090      0.063724     -0.068030
O	      3.67289      9.99524     -7.76508         0.001020     -0.065201      0.066466
O	      1.83586     10.24558    -10.24126        -0.000512      0.157568     -0.152008
