# total energy = -226.15286995 eV
 
CRYSTAL
PRIMVEC
0.023485 6.322864 6.188041 
6.262753 0.004483 6.206050 
4.147234 4.199881 0.030623 
PRIMCOORD
36 1
Li	      2.04479      2.09174      0.15895        -0.067937     -0.041011     -0.046651
Li	      2.03897      0.08425      2.05119         0.040229     -0.046631      0.003736
Li	      4.13688      2.14342      2.03247        -0.062304      0.044890      0.011984
Li	      6.18004      2.10234      4.19442         0.098951      0.018053      0.022162
Li	      4.19598      6.24447      2.07739        -0.041890      0.057214      0.010227
Li	      8.30562      4.20878      8.27109         0.019433     -0.032326      0.005272
Li	      6.29307      4.00771      6.26398        -0.040963      0.012398      0.051965
Li	      6.24526      4.27556     10.32676        -0.026751      0.041875     -0.054546
Li	      2.16279      6.23818      4.11577         0.002809      0.049997      0.010871
Sc	      4.20443      4.20747      0.16656         0.089056      0.148338     -0.090254
Sc	      2.05800      2.14385      3.97421        -0.077651      0.038222      0.206523
Ti	      8.30088     10.38214     10.35266         0.027029     -0.605284     -0.182046
Co	      4.26407      4.16377      8.27996        -0.605193      0.549638      0.134777
Co	      4.19131      4.19069      4.11706         0.044547      0.026598     -0.107222
Co	      8.32523      6.31519      6.23332         0.064687      0.091073     -0.023403
Co	      2.14822      4.22947      6.19232         0.098803     -0.107089     -0.005597
Co	      4.10383      6.41060      6.19195         0.128239      0.104688      0.059456
Co	      6.27056      6.36186      8.27691        -0.033895     -0.377466      0.029473
O	      2.07937      2.15256      2.06221         0.013086      0.049222     -0.143075
O	      4.16573      4.17691      2.18957        -0.015903      0.021480      0.073937
O	      4.17737      2.16753      4.24234        -0.014771      0.024377      0.079811
O	      6.28753      4.21925      4.14308         0.011427      0.078250     -0.016419
O	      6.11099      2.06731      6.24499        -0.125257     -0.090042      0.008685
O	      8.32185      4.32701      6.09935         0.021731      0.120527      0.069225
O	      2.25296      4.23130      4.24172        -0.014310     -0.149702      0.066240
O	      4.16622      6.14511      4.17694         0.012938     -0.163113     -0.013544
O	      4.10862      4.09743      6.11458        -0.062559     -0.187424     -0.072272
O	      6.33574      6.46533      6.32854         0.049934      0.074253     -0.010239
O	      6.11061      4.40182      8.25103        -0.111813     -0.033103     -0.029524
O	      8.20859      6.35403      8.17100         0.056079      0.512127     -0.213531
O	      2.12170      6.19201      6.21927        -0.078294     -0.065584      0.020893
O	      4.34863      8.42561      6.19081         0.032337     -0.119047      0.070900
O	      4.30129      6.34746      8.32557         0.009021     -0.395728     -0.124566
O	      6.42781      8.31233      8.16121         0.558472     -0.207033      0.019313
O	      6.12307      6.33316     10.25497        -0.059951      0.034257      0.024507
O	      8.30113      8.52228     10.35325         0.060630      0.523106      0.152934
