# total energy = -215.27855723 eV
 
CRYSTAL
PRIMVEC
0.019973 6.373330 6.303937 
6.335068 0.034675 6.289014 
4.224993 4.240794 0.021616 
PRIMCOORD
36 1
Li	      6.39299      0.11992      6.28052         0.063474     -0.144005      0.065330
Li	      2.10918      8.33789      6.28576         0.112295     -0.092471      0.039601
Li	      6.26071      4.28578      2.08084        -0.032333      0.052039      0.018859
Li	      6.38420      8.38047     10.57220         0.019705     -0.016541     -0.079133
Li	      4.23129      6.28652      2.10541         0.035800     -0.052436      0.107034
Li	      2.26391      4.20196      2.09319         0.030031     -0.088417      0.069940
Li	      0.02273      4.25993      4.21937         0.037303     -0.009761     -0.010392
Li	      2.13980      4.38573      6.26384        -0.076803     -0.002978     -0.021529
Li	      4.04962      6.42318      6.26084        -0.066738      0.117887      0.016941
Sc	      6.40438      4.14406      6.28541        -0.076539      0.279537     -0.168101
Sc	      6.36109      6.42812      8.42842        -0.033045      0.034966      0.003753
Ti	      8.40774      8.57141      8.48791        -0.103756      0.165443      0.409739
Fe	      6.22441      6.45552      4.18235        -0.060103     -0.078609      0.046649
Co	      4.15392      2.24200      2.04378        -0.199259      0.121233     -0.462586
Cu	      4.30784      2.09661      6.27859        -0.221138      0.097643     -0.006316
Ni	      2.13380      6.37941      4.28335         0.070221     -0.100628     -0.079641
Ni	      4.27276      0.02758      4.23799        -0.012852     -0.003343     -0.236706
Ni	      4.21239      4.26171      4.19658        -0.022119     -0.047528     -0.091845
O	      2.12787      6.36039      6.13739        -0.048132      0.020800      0.352274
O	      2.10081      2.17178      2.28209         0.102686     -0.009339     -0.718812
O	      4.26287      4.11667      2.16189        -0.029798     -0.074465     -0.101807
O	      4.20719      2.12571      3.91408         0.198245     -0.005641      0.266224
O	      6.33416      4.50400      4.20557         0.028189     -0.477739      0.301560
O	      6.27066      2.15222      6.27607        -0.096499     -0.109534     -0.001499
O	      8.45890      4.35880      6.25926         0.092730      0.202237      0.218113
O	      2.12739      4.09266      4.21603        -0.046237      0.542215      0.046675
O	      4.21061      6.31627      4.24613        -0.136441      0.083498      0.082000
O	      4.26468      4.14632      6.39258         0.068869     -0.168793     -0.030151
O	      6.47436      6.37349      6.17731         0.304053     -0.149463      0.544063
O	      6.18482      4.35891      8.34832         0.039042      0.012359     -0.147534
O	      8.44800      6.53134      8.61273         0.044799      0.058624     -0.311719
O	      4.20061      8.46827      6.63331        -0.044887     -0.013059      0.258721
O	      4.25368      6.33191      8.44145         0.059597     -0.171981     -0.133003
O	      6.48986      8.50697      8.40356         0.117364     -0.043716     -0.044230
O	      6.41603      6.35752     10.46396        -0.075684      0.048179     -0.040457
O	      8.47276      8.55427     10.41139        -0.042035      0.023786     -0.162015
