# total energy = -215.85256179 eV
 
CRYSTAL
PRIMVEC
0.019920 6.314244 6.231979 
6.270541 0.011156 6.240647 
4.181876 4.216817 0.006255 
PRIMCOORD
36 1
Li	      8.36964      2.16828      6.27068         0.039114      0.009291      0.022445
Li	      2.11073      0.05037      2.13689        -0.005756      0.021575      0.012209
Li	      6.28123      6.27630      4.19214        -0.009290      0.032691     -0.014546
Li	      4.14208      4.27243      4.14740        -0.044173     -0.009081      0.014538
Li	      8.21699      6.36826      6.35243         0.017801      0.003548      0.028039
Li	      6.34062      4.30128      6.25179         0.035669      0.045744      0.014227
Li	      6.24860      4.18398     10.26573         0.024365     -0.002315     -0.018349
Li	      2.19065      6.25481      4.09705         0.007824     -0.052018     -0.015505
Li	      6.29444      6.30670      8.22875        -0.001095     -0.005994      0.001040
Sc	      6.29262      2.19339      4.15553        -0.000889      0.016959     -0.013018
Sc	      4.23866      6.29052      6.13338        -0.075334      0.030328     -0.027999
Ti	      0.07156      6.34835      6.23237         0.082811      0.069592     -0.088633
Fe	      8.29937      4.27896      8.40248        -0.000694     -0.009179     -0.193631
Co	      4.13208      2.10242      2.10370        -0.049862     -0.058572     -0.058378
Ni	      8.32446      4.23258      4.15694         0.048108     -0.004116      0.084771
Ni	      4.21490      6.31683      2.16109         0.047355     -0.033003     -0.040462
Ni	      2.12545      4.17024      6.20131        -0.043832      0.026885     -0.134007
Ni	      4.27688      4.13886      8.29098        -0.030056      0.032265      0.020694
O	      2.24363      2.21901      2.07794         0.117755     -0.135478     -0.009740
O	      4.12790      4.11228      2.05107         0.103678     -0.026027     -0.052352
O	      4.18737      2.04185      3.96122        -0.018288      0.035366     -0.024078
O	      6.38514      4.19986      4.22068        -0.044455     -0.002565     -0.000236
O	      6.34218      1.94420      6.28600         0.017284     -0.178552     -0.092342
O	      8.47846      4.22329      6.38985         0.088663      0.008945     -0.130052
O	      2.06381      4.23083      4.00423         0.018518     -0.021667      0.415952
O	      4.19297      6.30178      4.14556         0.011845      0.000499      0.111260
O	      4.14709      4.22965      6.32422         0.074133     -0.023765     -0.172676
O	      6.25757      6.40868      6.20980         0.008579     -0.108970      0.026017
O	      6.34571      4.15025      8.26993        -0.089637      0.092617     -0.020626
O	      8.41977      6.26113      8.34989        -0.063385      0.115644     -0.009288
O	      2.00090      6.23111      6.20960        -0.149497      0.077626     -0.038578
O	      4.20596      8.46864      6.40459        -0.066810      0.044586      0.111241
O	      4.15126      6.45757      8.31858         0.031098      0.012072     -0.065596
O	      6.13545      8.41487      8.30816        -0.073436      0.004944      0.065697
O	      6.14605      6.33134     10.55966         0.025685      0.007927      0.164707
O	      8.36914      8.54215     10.28119        -0.033798     -0.017803      0.127257
