# total energy = -219.25718627 eV
 
CRYSTAL
PRIMVEC
-0.023590 6.263715 6.252841 
6.236959 -0.010804 6.240775 
4.167104 4.176829 -0.016366 
PRIMCOORD
36 1
Li	      2.14487      6.18034      8.28253         0.020693     -0.018829     -0.043962
Li	      4.24632      8.24515      8.24912         0.023628     -0.032860     -0.007109
Li	      6.42057      8.39622     10.29777         0.030979     -0.062386     -0.047831
Li	      8.27516      4.11432      8.28399        -0.016215      0.020281     -0.020721
Li	      6.23138      4.18809      6.20330        -0.000957     -0.027922      0.022606
Li	      8.26736      6.36511     10.52603        -0.036836      0.017384     -0.005013
Li	      6.19572      8.43634      6.33628        -0.020275      0.035565      0.038089
Li	      4.07075      6.12562      6.36609        -0.035504     -0.077652      0.024756
Li	      8.23725      8.41791      8.35006         0.013970     -0.059173     -0.023860
Sc	      4.16088      4.21242      4.06019        -0.102433      0.020479     -0.005015
Sc	      6.17857      6.32747      8.33416        -0.022669     -0.092771      0.000316
Ti	      4.18428      2.11886      6.23518        -0.102102      0.134973      0.267588
Fe	      4.15533      8.28707      4.21723        -0.085068      0.068677      0.044288
Co	      6.24841      6.27624     12.47705         0.072793     -0.299605     -0.052800
Co	      6.20885      6.25565      4.15897         0.049406      0.018305     -0.014310
Cu	      6.20882      2.13871      8.30306        -0.261762      0.005520     -0.075024
Ni	      2.06365      2.08966      0.01580         0.015730      0.103575      0.164849
Ni	      8.25318     10.39806     10.33067         0.147009      0.061208     -0.100271
O	      1.84150      2.13109      2.22846        -0.084611      0.053381     -0.999801
O	      4.12727      4.38796      1.91224         0.001068     -0.044606     -0.049771
O	      3.99941      2.10199      4.15562        -0.012856     -0.030743     -0.005115
O	      6.22435      4.31315      4.12288         0.046735      0.023259      0.089814
O	      6.17060      1.91478      6.03940        -0.124321      0.089918     -0.196085
O	      8.47980      4.21271      6.16297         0.007922      0.073697      0.038606
O	      2.04412      4.02834      4.20316         0.021889     -0.010765      0.093278
O	      4.24011      6.27667      4.38340         0.036605      0.005219      0.215756
O	      4.21815      3.98855      6.14959         0.042917     -0.089017     -0.067845
O	      6.40948      6.17788      6.20053         0.320301     -0.077797      0.813841
O	      6.21846      4.05093      8.41549         0.078942      0.076326     -0.024983
O	      8.39002      6.24730      8.17214         0.127746     -0.029461     -0.107147
O	      1.85007      6.33725      6.26071        -0.144696     -0.131181      0.023417
O	      4.09066      8.58460      6.27507         0.120313      0.149716      0.002227
O	      4.18261      6.25619      8.29335        -0.087448     -0.065215     -0.042794
O	      6.22886      8.26449      8.34828         0.034661      0.234092      0.016295
O	      6.24186      6.13872     10.49761         0.097068      0.077188      0.049382
O	      8.41314      8.35453     10.48037        -0.172623     -0.118780     -0.015653
