# total energy = -218.44146000 eV
 
CRYSTAL
PRIMVEC
-0.021388 6.241248 6.215447 
6.264342 0.015499 6.178253 
4.216319 4.176230 -0.030106 
PRIMCOORD
36 1
Li	      2.08543      6.28936      8.24299        -0.040269      0.009726     -0.057572
Li	      4.19944      0.06052      4.09995        -0.022660      0.134332     -0.015311
Li	      6.19356      2.12424      4.09049        -0.077940     -0.036214     -0.056127
Li	      6.31347      6.24355      4.18924         0.013889      0.162422     -0.057777
Li	      4.09584      2.13986      6.08030         0.022920      0.021142     -0.106473
Li	      4.18860      8.29518      4.21313         0.134882     -0.135673      0.048578
Li	      2.15461      6.22367      4.17844         0.087879     -0.115650      0.060717
Li	      2.04185      4.18823      6.12929        -0.031335      0.135663     -0.126086
Li	      4.18575      6.25468      6.12010        -0.092580     -0.028907     -0.124328
Sc	      6.27178      6.27655     12.22456        -0.015487     -0.116603      0.050554
Sc	      2.06548      4.22042      2.14864         0.358829     -0.054897      0.667477
Ti	      8.25391      8.40544      8.37953        -0.292773      0.059408      0.315529
Fe	      2.13821      8.26483      6.17018         0.104324      0.086825     -0.118983
Co	      4.20774      4.17010      4.15375        -0.162971      0.018822      0.013739
Co	      6.22886      4.20002      6.12464        -0.155131      0.519632     -0.781253
Ni	      4.23511      6.24375      2.10306         0.081814     -0.198450      0.285473
Ni	      4.20116      8.27106      8.30011         0.033939      0.119438      0.123480
Ni	      6.24434      6.26442      8.28243         0.061338      0.099182      0.281773
O	      2.11441      2.13025      1.98673        -0.035344     -0.094211     -0.059737
O	      4.18064      4.17234      2.15023         0.023434      0.046115     -0.344085
O	      4.21635      2.28561      4.07547        -0.035183     -0.534268      0.044831
O	      6.11316      4.17822      4.27887         0.321943     -0.052110      0.532956
O	      6.35966      2.21346      6.20996        -0.094564     -0.040954     -0.004079
O	      8.28751      4.13955      6.14577         0.294145     -0.097343     -0.003172
O	      2.26644      4.14755      4.16225        -0.361447      0.012226     -0.185620
O	      4.22190      6.05540      4.09306         0.021742      0.515253     -0.006174
O	      4.35206      4.16247      6.10409        -0.311059     -0.225106      0.289490
O	      6.29938      6.00331      6.25390         0.047637     -0.095160     -0.165156
O	      6.18711      4.14863      8.13269        -0.097133      0.015192     -0.027768
O	      8.38122      6.36141      8.20418         0.005252      0.119657     -0.079773
O	      2.01518      6.34673      6.19327         0.062918     -0.051438      0.052632
O	      4.12808      8.36679      6.21739         0.026337     -0.036409     -0.028656
O	      4.16918      6.14884      8.29014        -0.065440     -0.258548     -0.144637
O	      6.38291      8.32311      8.17502         0.275209      0.067935     -0.006443
O	      6.24177      6.24714     10.29047        -0.024090      0.003331      0.053650
O	      8.38659      8.34904     10.22435        -0.063026      0.025641     -0.321670
