# total energy = -223.78411372 eV
 
CRYSTAL
PRIMVEC
-0.001750 6.342030 6.260235 
6.303825 -0.006780 6.265225 
4.200804 4.229662 -0.002724 
PRIMCOORD
36 1
Li	      0.02798      6.27424      6.20982         0.111456     -0.086607     -0.028873
Li	      8.43306      8.46132     12.46750         0.011064     -0.053008      0.003848
Li	      4.18353      2.13597      2.08887        -0.008404      0.003183     -0.012636
Li	      4.15144      6.39880      2.20007        -0.018381     -0.021801      0.028897
Li	     10.41023      8.42920     10.39794        -0.028763     -0.011119      0.070717
Li	      2.19099      6.33856      4.18840         0.069022     -0.072928      0.043283
Li	      4.18400      6.33913      6.15788        -0.025862      0.002677     -0.080012
Li	      4.30693      4.21166      8.42718         0.026154      0.006038     -0.010300
Li	      6.29170      6.27313      8.38190        -0.003752     -0.029804      0.004606
Sc	      2.03992      0.08813      2.01412        -0.089794      0.129705     -0.241898
Sc	      8.40933      6.37925      6.32489        -0.031201      0.180096      0.052271
Ti	      6.41688      8.31464     10.38214         0.110579     -0.330769      0.002576
Fe	      8.37359      4.22842      8.37753         0.142094     -0.109847      0.148992
Co	      4.25225      6.30523     10.39036         0.131760      0.008572     -0.150855
Co	      4.19379      4.23618      4.16943        -0.183138      0.165591     -0.022134
Co	      6.27273      4.24566      6.34199        -0.016507     -0.086513     -0.290614
Co	      6.14138      8.50919      6.29054        -0.176695      0.043075     -0.066940
Cu	      6.22480      6.38010      4.15919        -0.103899      0.037484      0.003408
O	      2.11012      2.17200      2.16331        -0.007292     -0.002259     -0.196836
O	      4.15490      4.21887      2.21416        -0.004354     -0.021407     -0.004590
O	      4.29871      2.19037      4.17668         0.107080     -0.085375     -0.002416
O	      6.18596      4.18941      4.20632         0.085149     -0.205652      0.680610
O	      6.28478      2.18522      6.09171         0.085261      0.224045      0.006810
O	      8.38923      4.25499      6.15504        -0.288190     -0.078672      0.029704
O	      2.27464      4.17915      4.16964         0.093261      0.174996      0.070130
O	      4.24471      6.12803      4.17358        -0.057966     -0.034024     -0.019323
O	      4.11048      4.23190      6.14814         0.330969     -0.038782      0.073391
O	      6.30040      6.37003      6.15103         0.005461     -0.299801      0.226804
O	      6.39235      4.20600      8.33698        -0.156711      0.086113     -0.684528
O	      8.40628      6.21437      8.32216        -0.015097      0.077382     -0.048676
O	      2.09847      6.27425      6.28737         0.001639      0.055870      0.096778
O	      4.36536      8.43577      6.21607         0.077210     -0.010003      0.002759
O	      4.14093      6.36484      8.58102         0.039824     -0.005910      0.176580
O	      6.32588      8.51036      8.42611         0.026765     -0.027513      0.127635
O	      6.25620      6.44981     10.43725        -0.066033      0.376055      0.023117
O	      8.30656      8.50109     10.44181        -0.172709      0.040911     -0.012286
