# total energy = -211.47711781 eV
 
CRYSTAL
PRIMVEC
0.019650 6.392010 6.369763 
6.227677 0.055602 6.333833 
4.150538 4.235927 0.038540 
PRIMCOORD
36 1
Li	      2.07158      8.36918      6.42550         0.041985     -0.094360      0.035670
Li	      2.03730      6.45144      8.37340        -0.022085      0.076835     -0.016391
Li	      4.22841      6.33315      2.26891         0.050041     -0.081471      0.055141
Li	      2.10470      4.19176      2.21889         0.030828     -0.026509      0.013917
Li	      4.13910      4.38578      4.19052        -0.035914      0.031021     -0.047830
Li	      2.07117      6.37284      4.31752         0.029458     -0.019530      0.035717
Li	      2.03390      4.39446      6.23219         0.054636     -0.021340     -0.119449
Li	      4.17041      6.41371      6.32663        -0.010837      0.011906      0.029480
Li	      6.24527      6.41246      8.50012         0.040929      0.006693     -0.015383
Sc	      8.32152     10.61883     10.62702        -0.178893      0.100081     -0.058107
Sc	      8.29412      6.42726      6.42186        -0.214439      0.148170      0.129255
Ti	      4.19466      4.31041      8.41609         0.271846     -0.159417     -0.489468
Fe	      4.14796      8.59762      8.38907        -0.096391     -0.034837      0.085164
Cu	      6.28010      8.53445     10.60692        -0.090327      0.006493      0.014743
Ni	      4.22219     10.59773      6.43506        -0.068809     -0.032921      0.127076
Ni	      6.20251      6.39300      4.26198         0.159012      0.045762      0.034584
Ni	      6.24498      4.29904      6.39942        -0.070744      0.119323      0.059946
Ni	      4.22625      8.43578      4.32398         0.177408     -0.268382      0.065113
O	      1.93226      6.38359      6.36672         0.204209     -0.029849     -0.003153
O	      2.16983      2.11516      2.33647        -0.022717     -0.005569     -0.295039
O	      4.16545      4.17647      1.99642        -0.024399      0.051685      0.098463
O	      4.08779      2.14990      4.18128         0.290696     -0.078509      0.008201
O	      6.20847      4.40497      4.36735         0.086494     -0.281788     -0.156307
O	      6.24807      2.23012      6.16210         0.053625     -0.046492     -0.178120
O	      8.39102      4.33798      6.35730        -0.038183      0.001288     -0.012249
O	      2.04173      4.06203      4.24258         0.138688      0.316881     -0.038073
O	      4.32316      6.44459      4.25698        -0.559651     -0.204821     -0.006170
O	      4.12361      4.29591      6.49127        -0.027216     -0.049242      0.370468
O	      6.24568      6.33102      6.19126         0.076017      0.069102      0.221454
O	      6.11775      4.33873      8.46100        -0.224866      0.031776     -0.301584
O	      8.28854      6.58501      8.44727         0.043202      0.319961     -0.008935
O	      4.12923      8.50431      6.46692        -0.044375     -0.062896      0.332290
O	      4.17601      6.36120      8.52023         0.050658     -0.167766      0.092716
O	      6.24724      8.51806      8.69544         0.022050     -0.005407      0.151224
O	      6.26342      6.33675     10.75146        -0.023654      0.323651     -0.263490
O	      8.36790      8.55210     10.49695        -0.068282      0.010479      0.049128
