# total energy = -212.44127696 eV
 
CRYSTAL
PRIMVEC
0.028894 6.338928 6.380887 
6.227910 -0.014727 6.425749 
4.125483 4.228397 0.017958 
PRIMCOORD
36 1
Li	      6.17507      0.10398      6.46266         0.009143      0.073389      0.078086
Li	      6.21498      2.08452      4.34882         0.003922      0.050601      0.029284
Li	      8.28460      4.29789      8.58286         0.009487     -0.040770     -0.004889
Li	      2.04148      2.19506      4.27682        -0.046608      0.035421     -0.049333
Li	      4.04501      4.25206      4.34580        -0.016380      0.077702     -0.044320
Li	      8.38447      6.26527      6.51603         0.012683     -0.045519     -0.056989
Li	      6.31617      4.17048     10.52538         0.028342     -0.120315     -0.032921
Li	      8.30310      6.21804     10.56509         0.057017     -0.069294      0.001878
Li	      8.35656      8.30887      8.61901        -0.044806     -0.012800      0.029962
Sc	      8.30478      8.43116     12.72737        -0.027896     -0.082090      0.095172
Sc	      6.17281      4.20743      2.29978        -0.153875      0.100213     -0.011200
Ti	      4.28845      6.35260     10.71897        -0.134634      0.062256      0.144667
Fe	      4.11296      2.18286      2.26517        -0.075287      0.115062     -0.068752
Cu	      4.16396      6.31382      6.34363        -0.094920      0.081122     -0.206046
Cu	      6.27992      6.26372      8.56346         0.071694     -0.068663     -0.019826
Ni	     10.28124      6.37633      8.57842         0.168774     -0.217300     -0.139182
Ni	      6.18860      4.20431      6.40838        -0.050738     -0.081390     -0.044325
Ni	      2.10189      4.21402      6.36374         0.000975      0.059919      0.069029
O	      4.11251      6.36328      4.01978        -0.032111     -0.010435      0.456551
O	      8.26699      6.30771      8.51842        -0.511386      0.006360     -0.058653
O	      2.12220      2.08453      2.07648         0.008792     -0.054977     -0.038680
O	      4.13090      4.16157      2.11401         0.053297      0.065173     -0.062916
O	      4.17833      2.02143      4.20138         0.024305     -0.174258      0.227103
O	      6.31254      4.22646      4.31248         0.078939      0.002443     -0.039968
O	      6.24279      2.12272      6.55537        -0.009542     -0.103439     -0.238801
O	      8.33052      4.20034      6.28115         0.108900      0.027754     -0.099796
O	      2.07026      4.18348      4.50776        -0.014403     -0.005620     -0.237160
O	      4.09520      4.45441      6.37257         0.016453     -0.095180      0.013047
O	      6.05117      6.28826      6.57125         0.139169      0.030037      0.130807
O	      6.24929      4.11498      8.44957        -0.055405      0.337902      0.123065
O	      2.24385      6.34048      6.41722        -0.073747      0.045935     -0.008744
O	      4.22364      8.23318      6.49358        -0.021711      0.034907     -0.025017
O	      4.18855      6.42527      8.70226         0.249874     -0.123392      0.083315
O	      6.14056      8.49427      8.36605         0.191548     -0.040116      0.096396
O	      6.19867      6.35339     10.53833         0.085441      0.002135     -0.016614
O	      8.29924      8.63128     10.72101         0.044692      0.137227     -0.074230
