# total energy = -101.48078536 eV
 
CRYSTAL
PRIMVEC
-0.000334 2.119473 2.123795 
5.984142 0.095340 -2.221750 
-1.977501 6.792145 -4.679907 
PRIMCOORD
16 1
Li	      0.11355      2.40121      1.83757         0.011984     -0.003238      0.003987
Li	      1.88599      1.92064      0.19560        -0.015082      0.002643     -0.004911
Li	      0.09209      4.12795      0.11654         0.023371      0.006011     -0.014590
Li	     -0.06997      6.98577     -2.76290        -0.023410     -0.006887      0.013186
Ti	      1.89427      4.49655     -2.37565        -0.232198     -0.116575      0.121981
Ti	      4.11154      4.59289     -4.61672         0.234796      0.111297     -0.117519
Ni	      4.10695      2.13215     -2.13891        -0.140757      0.050321     -0.047236
Ni	      1.89938      6.95749     -4.85432         0.140421     -0.049889      0.048018
O	      3.95823      4.66702     -2.55679        -0.034293      0.063940     -0.064425
O	      3.99217      2.20831     -0.09464        -0.001106      0.001795      0.000367
O	      2.04738      6.54161     -2.31137         0.034956     -0.064950      0.060525
O	      2.10376      2.56347     -2.57121        -0.109657      0.133231     -0.156097
O	      3.90206      6.52542     -4.42115         0.112529     -0.129449      0.155585
O	      0.02763      6.74838     -4.64566        -0.247678     -0.009239      0.020968
O	      0.01088      4.49671     -2.38541        -0.002354      0.002110      0.000313
O	     -0.00527      2.24604     -0.12476         0.248479      0.008883     -0.020152
