# total energy = -212.72135569 eV
 
CRYSTAL
PRIMVEC
0.012505 6.547732 6.340199 
6.148973 0.059981 6.294455 
4.132370 4.367819 0.005490 
PRIMCOORD
36 1
Li	      6.13543      2.43800      8.51678         0.012688      0.065465      0.028333
Li	      4.08591      4.53899      4.23157        -0.001830      0.086465      0.025561
Li	      6.14902      4.50428      6.47911        -0.020396      0.100725     -0.049816
Li	      0.06910      4.23731      4.10241        -0.023982     -0.076585      0.057594
Li	      8.25425      6.61120     10.48227        -0.008519      0.036941     -0.027830
Li	      6.19522      8.71866      6.33058        -0.041892     -0.024921      0.016128
Li	      4.17839      6.53080      6.25153         0.008902     -0.007463     -0.009281
Li	      4.25184      4.39753      8.35302         0.022917      0.079161      0.030270
Li	      6.19116      6.43451      8.39978        -0.014620      0.011608      0.051798
Sc	      8.28094     10.90162     10.56940         0.010443     -0.025493     -0.016388
Sc	      6.17627      8.74648     10.51861        -0.014781      0.032455     -0.054255
Ti	      4.05246      2.48001      6.50417        -0.121703      0.407954      0.242697
Fe	      2.05156      6.53991      8.36522        -0.039462     -0.058766      0.033218
Cu	      2.06816      8.68648      6.36585        -0.086770      0.001153     -0.129348
Cu	      4.09193      8.72452      8.37914         0.096597     -0.120635      0.117599
Cu	      8.18769      4.42632      8.43785         0.190198      0.103607     -0.024528
Ni	      4.15025     10.88003      6.34666         0.042681     -0.010314     -0.086532
Ni	      6.14432      6.58573      4.25696         0.094736     -0.096203     -0.033339
O	      6.34817      4.44311      8.43392        -0.149972      0.036002     -0.044404
O	      4.04100      8.80034      6.42180         0.111216     -0.095589     -0.152196
O	      2.09042      1.99334      2.01450        -0.164729     -0.044267      0.113596
O	      3.99550      4.20322      2.06869        -0.082659      0.032917      0.115376
O	      4.01783      2.12943      4.26121         0.088604     -0.014184      0.041821
O	      6.16745      4.40335      4.09715        -0.035217     -0.111439      0.064697
O	      6.07875      2.17206      6.27002        -0.144424      0.050201      0.080917
O	      8.22115      4.36187      6.42304        -0.144850      0.039289      0.093112
O	      2.06350      4.18854      4.00964         0.024281      0.160530      0.017885
O	      4.29853      6.55472      4.22935        -0.269199     -0.011419     -0.014917
O	      4.10750      4.28994      6.33974         0.019500     -0.321228     -0.004578
O	      6.30761      6.59484      6.26920         0.183386      0.026540      0.123357
O	      8.25416      6.74341      8.33502         0.005970      0.098276     -0.211018
O	      2.03665      6.65947      6.37516         0.125305     -0.096666     -0.112043
O	      4.06951      6.62787      8.47401         0.111411     -0.109550     -0.020299
O	      6.06082      8.91917      8.43198         0.118666     -0.085686     -0.057326
O	      6.16387      6.70952     10.55277         0.045356     -0.029099     -0.101785
O	      8.22427      8.84230     10.64237         0.052147     -0.029782     -0.104073
