# total energy = -213.12373882 eV
 
CRYSTAL
PRIMVEC
0.033460 6.341654 6.302246 
6.287209 0.012595 6.323263 
4.186628 4.236950 0.013200 
PRIMCOORD
36 1
Li	     10.40809      4.33173      6.37104         0.097755     -0.074011     -0.001730
Li	      6.26597      4.30236      2.17965        -0.039946      0.043900     -0.025529
Li	      8.28469      4.24441      4.32074        -0.003995     -0.019337     -0.010092
Li	      0.13124      2.03980      2.10333        -0.014598     -0.014701      0.049291
Li	      6.20142      6.40137      4.26451        -0.005661      0.054618      0.036538
Li	      4.29696      4.27406      4.17731         0.050348      0.019479      0.001403
Li	      6.31436      4.18996      6.21063        -0.007964      0.004913     -0.020723
Li	      4.28519      8.39581      4.26134        -0.036414     -0.079121      0.104109
Li	      2.20159      4.16186      6.26556        -0.063930     -0.062752     -0.031515
Sc	      4.16380      2.24760      2.18841        -0.042923      0.149374     -0.267261
Sc	      2.17153      6.24369      4.21477         0.088628      0.293986      0.185990
Ti	      6.22919      6.20846      8.44464        -0.035313     -0.052421     -0.466590
Fe	      4.23521      6.31420      6.24921         0.211231      0.176327      0.071669
Cu	      8.35590      2.16560      6.32229        -0.084383      0.053810     -0.098717
Cu	      6.27193      2.19478      4.23284         0.180829      0.117113     -0.096150
Cu	      2.13003      4.19058      2.10481        -0.299499      0.074392      0.072649
Cu	      8.33180      8.49150      8.42071         0.457998     -0.079870      0.251082
Ni	      4.21615      2.14453      6.25823        -0.047746     -0.032579      0.342632
O	      6.38046      2.13174      6.18147        -0.102828     -0.028486      0.209155
O	      8.38244      4.18927      6.42646        -0.069489     -0.009785      0.187860
O	      6.24008      4.31762      8.47598        -0.159518     -0.064628     -0.049919
O	      2.09214      2.18789      2.11938         0.067080      0.123171     -0.001712
O	      4.12211      4.26433      2.08708         0.174724     -0.116030      0.063821
O	      4.30424      2.13128      4.29791        -0.171081     -0.051411     -0.559321
O	      6.30173      4.12984      4.17357        -0.035372     -0.026175      0.061893
O	      2.09886      4.25049      4.14472         0.002149     -0.090971     -0.128529
O	      4.21936      6.33284      4.33230        -0.170102     -0.083108     -0.299696
O	      4.18524      4.26014      6.50097         0.063497      0.134690     -0.218207
O	      6.29619      6.38363      6.45223        -0.177195     -0.057560      0.111733
O	      8.29567      6.23353      8.35901         0.133532     -0.027557      0.093238
O	      2.20564      6.46929      6.29374        -0.220874     -0.229420     -0.079230
O	      4.06354      8.39522      6.32135         0.432064      0.079527      0.247739
O	      4.33671      6.45874      8.33196        -0.074094     -0.087323      0.178649
O	      6.35294      8.37573      8.46555        -0.116942      0.001889     -0.061175
O	      6.33316      6.42974     10.34816         0.040888      0.022730      0.160313
O	      8.31815      8.47581     10.38473        -0.020855     -0.062671     -0.013667
