# total energy = -213.07250277 eV
 
CRYSTAL
PRIMVEC
0.032289 6.275220 6.305647 
6.336056 0.034422 6.303514 
4.246905 4.204992 -0.000011 
PRIMCOORD
36 1
Li	      6.48843     10.35297      8.51029         0.091835     -0.127865      0.059873
Li	      4.25207      2.10678      2.16643         0.001492     -0.015594     -0.006005
Li	      6.35788      8.46161     10.40547        -0.006985      0.020656      0.009084
Li	      4.26840      6.33107      2.19659         0.044226      0.007391      0.023306
Li	      2.14175      2.08584      4.13449         0.008229      0.010113     -0.035983
Li	      4.24823      8.32585      4.16417         0.049826     -0.029373      0.016798
Li	      6.39373      8.38813      6.38679         0.037677     -0.014416     -0.021108
Li	      4.25876      6.29977      6.26441         0.010805      0.014213     -0.033132
Li	      8.38599      8.48019      8.51072        -0.086151      0.123526      0.030207
Sc	      2.13343      2.07411      0.05097         0.044600     -0.011831      0.005342
Sc	      6.32752      6.43980      8.45104        -0.231781      0.047723      0.015690
Ti	      4.37430     10.40271      6.37393         0.180305     -0.282613      0.222578
Fe	      6.27498      4.24628      6.29780        -0.358672      0.059396      0.060167
Cu	      4.20434      6.30906     10.42306        -0.014950      0.035227      0.119254
Cu	      2.12787      4.17256      2.14656        -0.162847     -0.137272     -0.107618
Cu	      4.26497      4.18994      4.16114         0.090332      0.053590     -0.008529
Cu	      4.22709      2.13785      6.27707        -0.154797      0.142463      0.047523
Cu	      8.55190      6.34670     10.46293        -0.246755     -0.001661      0.115161
O	      4.14978      6.18722      4.24399        -0.037177      0.068110     -0.049133
O	      4.28685      4.11106      6.18243         0.265225      0.077333      0.220690
O	      8.47759      6.22963      8.33116         0.095903      0.023393     -0.085622
O	      2.11592      2.21980      2.07695        -0.013175      0.093236      0.041685
O	      4.15509      4.19870      2.00964         0.012142      0.010565     -0.446106
O	      4.22757      2.13560      4.25898         0.004766      0.156379      0.259763
O	      6.33495      4.21405      4.30528        -0.185559     -0.010472     -0.149082
O	      6.31724      2.07145      6.30980         0.226100     -0.076738     -0.019717
O	      8.49771      4.27606      6.19113        -0.003041     -0.168153     -0.385054
O	      2.24970      4.30622      4.10214        -0.057329      0.164223      0.293902
O	      6.42303      6.24937      6.32488         0.007838     -0.171175      0.004111
O	      6.45887      4.22142      8.28633         0.103868     -0.014235     -0.174735
O	      2.00494      6.30085      6.35413        -0.156313      0.042430     -0.059963
O	      4.23361      8.52533      6.28458        -0.085899      0.321792      0.034453
O	      4.26000      6.29540      8.50198         0.090508      0.001560     -0.042750
O	      6.39535      8.38330      8.38270        -0.017353     -0.098585      0.104860
O	      6.40521      6.30629     10.60506         0.440544      0.035855     -0.032169
O	      8.52994      8.39427     10.52823         0.012564     -0.349188     -0.027738
