# total energy = -212.75829359 eV
 
CRYSTAL
PRIMVEC
0.006011 6.226198 6.252104 
6.303302 0.010653 6.247428 
4.216214 4.161708 -0.006810 
PRIMCOORD
36 1
Li	      2.14648      6.17773      8.30249        -0.031218      0.007486      0.017547
Li	      8.36663      4.15966      4.16935        -0.049209      0.034904     -0.022959
Li	      6.41335      8.29416     10.41372        -0.011938      0.029126     -0.040830
Li	      8.42006      4.15031      8.28662        -0.001612     -0.004504     -0.010947
Li	      4.21245      4.16059      4.26825         0.022918      0.007525      0.008318
Li	      6.22273      4.21230      6.18041        -0.015981     -0.037553     -0.003872
Li	      8.38559      6.29420     10.48024         0.033603     -0.037049     -0.028555
Li	      2.23547      4.17250      6.27710        -0.028059     -0.001188      0.030901
Li	      4.19275      6.10665      6.26833        -0.035941      0.023623      0.001386
Sc	      4.26337      8.26271      8.32463        -0.033632     -0.011184      0.111914
Sc	      4.20163      6.18037      2.03730         0.071067     -0.041442      0.035939
Ti	      6.33517      4.21752     10.43803         0.110190      0.150429      0.027745
Fe	      6.31577      6.19399      4.26470         0.025868      0.011705     -0.152993
Ni	      6.32300      6.26302     12.46180         0.002632     -0.033302     -0.050255
Ni	      8.36412      2.12023      6.18657        -0.030539      0.074222      0.022416
Ni	      4.21646      2.09446      6.21434         0.017757     -0.045166     -0.076480
Ni	      8.36598      8.34861      8.33767        -0.007736      0.060798      0.018569
Ni	      6.33516      6.24489      8.29286         0.007785     -0.047064      0.039945
O	      2.09078      2.10105      2.07669        -0.018753     -0.003511      0.027738
O	      4.19333      4.14137      1.95141        -0.017122      0.031060      0.021386
O	      4.04748      2.13736      4.14913         0.199681     -0.002123     -0.094092
O	      6.28285      4.40592      4.17940        -0.021139     -0.261344     -0.011330
O	      6.30667      2.11841      6.18783        -0.044063      0.108131      0.018395
O	      8.61762      4.19272      6.20209        -0.175630      0.032001     -0.011527
O	      1.97851      3.96816      4.22583        -0.116054      0.207011      0.002804
O	      4.30429      6.28563      4.16305        -0.170389      0.092954     -0.036451
O	      4.20339      4.08996      6.43018         0.013667      0.062892     -0.153908
O	      6.42929      6.20060      6.21513        -0.077606      0.000972      0.151776
O	      6.30129      4.16837      8.46798         0.069311     -0.069209      0.140806
O	      8.40611      6.32719      8.31653         0.108125     -0.041983      0.080743
O	      1.90830      6.34743      6.21992         0.189069     -0.114297     -0.005591
O	      4.09747      8.30262      6.17026         0.089349     -0.100712     -0.113154
O	      4.27332      6.17007      8.28888        -0.076320      0.045411      0.044080
O	      6.30224      8.27625      8.38720        -0.074509      0.106729     -0.052352
O	      6.37458      6.12927     10.45214        -0.013542     -0.215576      0.004053
O	      8.53025      8.32445     10.33130         0.089969     -0.019772      0.058833
