# total energy = -220.61675260 eV
 
CRYSTAL
PRIMVEC
0.077458 6.293279 6.294626 
6.345340 0.039893 6.332206 
4.230839 4.221749 0.025223 
PRIMCOORD
36 1
Li	      0.27084      6.22362      6.28369        -0.089119      0.039822      0.044977
Li	      2.23177      6.26084      8.29072         0.016452     -0.010482      0.040643
Li	      6.51081      8.42629     10.47276        -0.030835      0.013247      0.039876
Li	      2.15206      4.18050      2.16014         0.055703      0.034525     -0.012125
Li	      4.20817      4.20678      4.25152        -0.045485      0.031041     -0.035545
Li	      2.15243      6.30647      4.29713         0.064712     -0.037935     -0.084629
Li	      2.13562      4.42531      6.29681         0.034210     -0.091163     -0.036052
Li	      8.52321      8.35791      8.49965         0.028047      0.000996     -0.017399
Li	      6.38738      6.41547      8.46174        -0.020055     -0.016114     -0.028278
Sc	      4.24087      6.15173      2.16126        -0.022350     -0.047318      0.019808
Sc	      8.45175      6.35695      6.39850         0.017944      0.014115     -0.017862
Ti	      6.42388      4.37346     10.50136         0.151141      0.074599      0.078053
Fe	      2.14631      2.11183      4.19091        -0.038772      0.060536      0.023486
Fe	      6.33540      4.23113      6.36374        -0.019843     -0.022781      0.142927
Co	      4.40077      8.47534      8.39989        -0.033178      0.016715     -0.074826
Cu	      4.30506      6.31610     10.46311         0.007899      0.017978     -0.121116
Ni	      8.53480      8.40419     12.60022        -0.017324      0.081779      0.065795
Ni	      4.23070      6.31190      6.34034         0.043354     -0.054194      0.041255
O	      2.26377      2.12348      2.16120         0.045792     -0.026137     -0.031183
O	      4.22956      4.11111      2.13921         0.041791     -0.134058      0.010546
O	      4.16301      2.07899      4.21403         0.139636      0.090249      0.015431
O	      6.44734      4.29923      4.31449        -0.134349     -0.071363     -0.082443
O	      6.34506      2.18412      6.36555        -0.059517     -0.039380     -0.002518
O	      8.35413      4.22638      6.27267         0.050768      0.047882      0.051526
O	      1.98792      4.12009      4.23584        -0.096618      0.135874     -0.025168
O	      4.34139      6.35626      4.21890        -0.065874      0.014009     -0.037818
O	      4.34065      4.21718      6.35109        -0.061521     -0.078387     -0.017529
O	      6.35612      6.26117      6.29674         0.037498      0.021479      0.042178
O	      6.38358      4.13925      8.50140         0.039387      0.089554      0.048124
O	      8.56051      6.30514      8.41229        -0.052607      0.007914      0.012845
O	      2.24388      6.36512      6.28521        -0.153122     -0.058509     -0.015061
O	      4.23487      8.40231      6.21242         0.181361      0.101130     -0.087729
O	      4.30546      6.54203      8.41200        -0.029966      0.073481      0.116265
O	      6.14422      8.45631      8.41636        -0.071653      0.006612     -0.011698
O	      6.35197      6.24159     10.50216         0.105056     -0.099922     -0.012534
O	      8.61096      8.53029     10.50578        -0.018562     -0.185795     -0.042219
