# total energy = -220.24950650 eV
 
CRYSTAL
PRIMVEC
-0.000640 6.252724 6.445634 
6.281339 0.017789 6.427935 
4.186285 4.155234 0.012870 
PRIMCOORD
36 1
Li	      8.29028      2.15131      6.50837        -0.021952     -0.016092     -0.114631
Li	      6.34004      2.11496      4.35188         0.034841     -0.036985      0.059945
Li	      6.28078      2.24334      8.55294        -0.140160     -0.049683      0.074367
Li	      8.21363      4.13560      8.59434        -0.097502      0.118232      0.115366
Li	      2.09335      2.07775      4.22742        -0.032142      0.001497      0.057430
Li	      8.40608      6.22075      6.53428        -0.011089     -0.020851      0.033094
Li	      6.28459      4.14524     10.56851        -0.076802     -0.019337     -0.009144
Li	      4.13028      6.27260      6.36363        -0.034794      0.016225     -0.190907
Li	      6.34091      6.14893      8.67429         0.084005     -0.021305      0.070227
Sc	      6.23495      0.15743      6.41586         0.125215      0.024101     -0.315057
Sc	      4.28257      4.15393      4.30877        -0.227858      0.149462      0.037203
Ti	      6.26890      8.12336      6.43106        -0.001569     -0.486433     -0.363896
Fe	      4.10409      2.02047      2.14907         0.287015     -0.007715      0.206199
Fe	      8.37599      6.26984     10.69182         0.078576      0.093087     -0.005707
Co	      8.33198      4.16494      4.30566         0.309647     -0.475062      0.179094
Cu	      2.09994      0.04044      2.11940        -0.011037      0.112390     -0.119031
Cu	      4.23807      4.18356      8.57705         0.109032     -0.326699      0.080545
Ni	      6.31357      4.14931      6.50689        -0.076092      0.088385      0.023415
O	      6.16790      4.21283      8.52710         0.034202      0.022378      0.012242
O	      2.17472      2.00136      2.12939        -0.216098     -0.210073     -0.012069
O	      4.23245      4.04732      2.17239         0.073312     -0.051918     -0.073790
O	      4.25468      1.95847      4.16053        -0.109998      0.280635     -0.054104
O	      6.28967      4.19932      4.43166         0.670500     -0.015233     -0.153719
O	      6.25689      2.11220      6.48990         0.051357     -0.053516     -0.007068
O	      8.36969      4.17127      6.26824        -0.002425      0.086793     -0.187860
O	      2.12814      4.14917      4.43005         0.050060     -0.162656      0.172314
O	      3.99922      6.21383      4.28576         0.748238     -0.291190      0.015317
O	      4.08666      4.15594      6.44251        -0.101267     -0.022135     -0.116261
O	      6.26568      6.30152      6.46507         0.007488      0.594906      0.053097
O	      8.34168      6.31139      8.82280        -0.047593      0.032937     -0.737846
O	      2.08198      6.23145      6.19388        -0.062261     -0.076823      0.726176
O	      4.33571      8.32394      6.59866         0.119051      0.028138      0.062357
O	      4.12532      6.27727      8.75649        -0.129232      0.018825      0.232350
O	      6.36730      8.45869      8.43395        -0.053996      0.331769      0.103169
O	      6.45095      6.29012     10.75743        -1.184620      0.007523      0.135011
O	      8.41360      8.53593     10.63645        -0.144053      0.336424      0.012172
