# total energy = -221.32813182 eV
 
CRYSTAL
PRIMVEC
0.033571 6.244924 6.406166 
6.291854 0.032650 6.407132 
4.217713 4.186993 -0.001283 
PRIMCOORD
36 1
Li	      6.26032      6.26262     12.70277         0.004540     -0.014980      0.065569
Li	      4.32005      6.30466     10.70573        -0.007766     -0.019325      0.004538
Li	      6.32640      8.22517     10.73964        -0.026285      0.043691      0.053358
Li	      8.38079      4.21926      8.52274        -0.017183      0.032808     -0.050378
Li	      6.33174      6.30047      4.33709        -0.005958     -0.004181      0.016355
Li	      8.39791      6.28682      6.39588        -0.004122      0.001645     -0.052486
Li	      6.31971      8.18115      6.40114         0.050388     -0.059910      0.006212
Li	      4.28331      6.32655      6.39206        -0.041174     -0.038694     -0.004884
Li	      6.36438      6.26021      8.60946         0.051951     -0.063364     -0.002810
Sc	      6.39272     10.40355      8.55125        -0.046097     -0.004948     -0.062310
Sc	      4.10064      4.16121      4.30931         0.078183     -0.025017      0.011890
Ti	      6.35334      4.33125      6.31775        -0.031508      0.423069     -0.126458
Fe	      4.31827      8.24586      8.57483        -0.107671      0.120697     -0.073576
Fe	      6.25133      2.16943      8.51109         0.137375     -0.132559      0.016733
Co	      2.11472      2.09624      0.02483         0.049239     -0.060533      0.099434
Cu	      0.04825      4.21057      4.30777         0.002015      0.002313      0.036068
Cu	      8.37409      6.32449     10.72137         0.118211     -0.083495      0.073058
Cu	      4.19142      4.20178      8.51101        -0.098996      0.079396     -0.063849
O	      6.40898      6.19765     10.68396        -0.106207      0.027422      0.043782
O	      8.52489      8.31284     10.92421         0.046158      0.125072      0.059633
O	      2.07489      2.09768      2.01022        -0.001423     -0.023518      0.040280
O	      4.24153      4.23952      2.17660        -0.025985     -0.018058      0.013967
O	      4.17437      2.12133      4.10661         0.037767      0.002715      0.010061
O	      6.25731      4.20497      4.29161         0.018853     -0.023915      0.139997
O	      6.46420      2.15557      6.45093         0.047467      0.072942      0.013934
O	      8.30064      4.05097      6.38477        -0.076159      0.058665     -0.003569
O	      2.05127      4.26927      4.34111        -0.046820     -0.121371     -0.070779
O	      4.20524      6.34090      4.16471         0.019997      0.044776     -0.032490
O	      4.37777      4.15015      6.30577         0.073776     -0.023098     -0.110878
O	      6.39720      6.16199      6.36644        -0.057925     -0.383760     -0.031995
O	      6.23002      4.14278      8.34334         0.106004      0.165393     -0.206605
O	      8.48411      6.39711      8.64053        -0.160742      0.043013      0.018918
O	      2.14492      6.45555      6.38515        -0.008042      0.007556      0.130473
O	      4.02710      8.36794      6.61373        -0.073805      0.024043      0.006964
O	      4.21996      6.24428      8.56667         0.066338     -0.065235     -0.007504
O	      6.31282      8.36941      8.44426         0.035604     -0.109258      0.039345
