# total energy = -219.71241484 eV
 
CRYSTAL
PRIMVEC
-0.022421 6.125810 6.347371 
6.365869 -0.025563 6.351574 
4.250297 4.093405 -0.023772 
PRIMCOORD
36 1
Li	     10.55830      4.09498      6.38466         0.019654     -0.018722     -0.007919
Li	      4.14622      2.01963      2.11362         0.038943     -0.006033      0.048577
Li	      4.24928      6.12070     10.54144         0.014363      0.045015      0.009379
Li	      6.40604      2.00538      8.28236        -0.016969      0.020419      0.011983
Li	      2.14937      2.01933      4.24996         0.027216     -0.036845      0.072569
Li	      8.44630      6.06170      6.39357        -0.060174      0.028610     -0.042647
Li	      6.52179      4.06270      6.35486        -0.000567      0.075230      0.004305
Li	      4.27573      6.14198      6.34991         0.031756     -0.019593     -0.024084
Li	      6.35061      6.11415      8.42436        -0.014366     -0.031860     -0.009104
Sc	      6.30478      2.01192      4.32850        -0.161720      0.062906     -0.128534
Sc	      2.08310      6.07506      4.21651         0.056569      0.094567     -0.044658
Ti	      4.32802      4.15483      8.33567         0.183304      0.185637     -0.084124
Fe	      4.30616      4.10698      4.14707        -0.021769     -0.031270      0.325129
Fe	      6.25215      8.08650      6.44980         0.089373      0.085542     -0.027293
Co	      2.18425      4.07084      2.05320         0.009890      0.106774     -0.330885
Ni	      8.49169      2.06395      6.37378         0.125270     -0.115059     -0.149393
Ni	      2.10660      0.05332      2.10545         0.002000      0.025924      0.091890
Ni	      4.23594      8.16152      4.19278        -0.026910     -0.146484     -0.056218
O	      2.14699      2.14875      2.01487         0.029435      0.034632      0.105957
O	      4.26782      4.09706      2.21908        -0.101314      0.017899     -0.366938
O	      4.26216      2.22571      4.24940         0.094670     -0.369368      0.027139
O	      6.25839      4.12475      4.19682         0.209389     -0.017082      0.037847
O	      6.48053      2.03832      6.29136        -0.037308     -0.010669      0.117431
O	      8.51704      4.06143      6.50942         0.028841      0.058293      0.289376
O	      2.13579      4.02121      4.08690        -0.021061      0.015183     -0.036559
O	      4.20055      5.98799      4.25672        -0.139301      0.368006      0.014508
O	      4.06349      4.06406      6.43205         0.053289      0.004347      0.179110
O	      6.31596      6.31042      6.35313        -0.018976     -0.319095      0.001374
O	      6.20107      4.06295      8.48761        -0.245732     -0.009247     -0.106343
O	      8.46172      6.07733      8.47927         0.011736     -0.048900      0.021532
O	      2.08642      5.98386      6.35645        -0.019146      0.161534     -0.053903
O	      4.34729      8.14166      6.23971        -0.198851      0.011911      0.094907
O	      4.15701      6.00637      8.48845         0.052136     -0.225018     -0.030973
O	      6.45597      8.18426      8.44530         0.050734     -0.033127      0.053251
O	      6.36449      6.08370     10.55978         0.027539      0.080456      0.024647
O	      8.48810      8.14213     10.50643        -0.071941     -0.044515     -0.031337
