# total energy = -222.87293162 eV
 
CRYSTAL
PRIMVEC
0.000211 6.552865 6.201316 
6.160148 0.004471 6.196992 
4.113633 4.373643 -0.004003 
PRIMCOORD
36 1
Li	      4.10029     10.81426      6.15778         0.026408     -0.010195      0.049566
Li	      2.07643      6.65114      8.15564        -0.002144      0.060943      0.029070
Li	      8.13238      4.44903      4.17732         0.003064      0.008374     -0.052561
Li	      6.07608      2.35145      4.21221         0.093255     -0.025764     -0.047324
Li	      2.18358      4.24508      2.02365         0.018429     -0.006243      0.000323
Li	      6.19314      6.44923      4.29605         0.011702     -0.062816     -0.119789
Li	      8.18105      6.39160      6.05952         0.041519      0.000526     -0.021088
Li	      6.05416      8.81048      6.15827         0.038481      0.038120      0.030612
Li	      4.11667      6.64728      6.14865        -0.031031      0.034709      0.038645
Sc	      0.08855      2.15776      2.04483         0.210104     -0.283635      0.057686
Sc	      6.15791      6.50843      8.22789        -0.066901      0.338769      0.104784
Ti	      3.98452      4.44148      8.16411        -0.405315      0.191953      0.241600
Fe	      4.11383      4.18273      4.13859        -0.303433      0.124046     -0.109975
Fe	      2.06460      6.53779      4.29372        -0.010200      0.108406     -0.276875
Co	      6.19868      4.36579      6.17586        -0.167985      0.119944     -0.276561
Co	      4.15872      8.73302      4.17797         0.361177      0.035766      0.218385
Cu	      8.23567      2.25253      6.15834        -0.112845     -0.325713     -0.175129
Cu	      4.10177      2.22386      2.02815         0.246252     -0.032835     -0.171970
O	      4.05873      8.76568      6.13852         0.084239      0.014404      1.063983
O	      2.16080      2.21569      1.96186        -0.331900      0.017480      0.236835
O	      4.13476      4.52880      2.19350        -0.036701      0.246349     -0.062537
O	      4.09199      2.27798      4.00721         0.030713     -0.174672      0.321957
O	      6.04421      4.38545      4.30017         0.145683      0.014199     -0.688885
O	      6.21871      2.39685      6.17371        -0.010522     -0.192325      0.223386
O	      8.08238      4.29168      6.17488         0.049992      0.325919      0.042803
O	      2.04948      4.50741      4.19090         0.521774     -0.054756     -0.024389
O	      4.11340      6.74626      4.13098         0.053070     -0.242227      0.005863
O	      4.17403      4.35145      6.25800         0.060452     -0.049517     -0.024342
O	      6.19545      6.31179      6.23234         0.048645      0.150305      0.255752
O	      6.09667      4.36775      8.30682        -0.027074     -0.000329     -0.600279
O	      8.24091      6.75808      8.33108        -0.045053     -0.082325     -0.045346
O	      2.03472      6.72042      6.16032        -0.020701     -0.068963      0.243178
O	      4.08245      6.30313      8.30963         0.068032     -0.378954     -0.026041
O	      6.19365      8.64087      8.22325         0.259516     -0.048870     -0.060319
O	      6.23058      6.32293     10.33326        -0.126220      0.244335     -0.104609
O	      8.36081      8.65108     10.27117        -0.674485     -0.034408     -0.276406
