# total energy = -216.27222141 eV
 
CRYSTAL
PRIMVEC
-0.045715 6.309871 6.182012 
6.346454 -0.055415 6.190517 
4.224111 4.205372 -0.029970 
PRIMCOORD
36 1
Li	      8.39600     10.37616     10.34994        -0.014884     -0.001111     -0.023586
Li	      4.20845      4.18501      4.28733         0.021507      0.016602     -0.046313
Li	      4.28827      2.23637      6.15225        -0.068108      0.082483     -0.015365
Li	      6.25763      4.10132      6.10258        -0.092677      0.051614     -0.009102
Li	      4.16071      8.40179      4.20292        -0.003959     -0.028887     -0.017677
Li	      2.10951      6.35165      4.20046        -0.003598      0.032634     -0.073942
Li	      2.11695      4.28624      6.07401         0.034528     -0.043175      0.031856
Li	      4.07670      6.15848      6.13009         0.062290     -0.019567     -0.081275
Li	      4.15084      4.18115      8.14923        -0.048497     -0.002098     -0.044206
Sc	      2.10140      4.23472      2.09557        -0.077775      0.073029      0.149530
Sc	      6.33670      6.22130      4.25520         0.039019      0.082002      0.134371
Ti	      6.23838      6.26736      8.23822        -0.053805     -0.121156     -0.114291
Fe	      4.26000      8.37315      8.21948        -0.075211      0.078500      0.048453
Fe	     10.39173      6.37176      8.25947         0.077375      0.050256     -0.088050
Cu	      6.32053      6.24928     12.29425        -0.033601     -0.015569     -0.076008
Ni	      8.42951      8.33862     12.32178         0.008708     -0.000094      0.051411
Ni	      2.10829      6.26518      8.23250         0.074700     -0.063960      0.033849
Ni	      6.33957      2.11573      4.15908         0.003384      0.001942      0.009794
O	      4.19976      4.20632      6.20338        -0.031423      0.034671     -0.074620
O	      2.15084      2.07789      1.97394        -0.059123      0.084236      0.084705
O	      4.24843      4.21752      1.92261        -0.051433      0.031338      0.093537
O	      4.22113      2.09722      3.99066        -0.007509     -0.042363      0.085878
O	      6.35081      4.16297      4.03650         0.034134      0.018249      0.104929
O	      6.32814      1.99001      6.26515        -0.074997     -0.108559      0.044780
O	      8.57425      3.95042      6.16297         0.045900      0.169031     -0.066559
O	      2.12180      4.09868      4.09092        -0.011124     -0.029306     -0.073798
O	      4.25465      6.30487      3.93705         0.057276      0.002697      0.195493
O	      6.36443      6.23689      6.29019        -0.001467     -0.000304      0.148854
O	      6.34555      4.21787      8.22362         0.020896      0.120926     -0.000164
O	      8.40455      6.24089      8.21893        -0.155266     -0.028600      0.034508
O	      1.99753      6.46429      6.20542        -0.081922     -0.196121     -0.055386
O	      4.18796      8.50564      6.22255         0.112823      0.031754     -0.053996
O	      4.31181      6.34694      8.18878         0.127594     -0.030663     -0.004629
O	      6.26563      8.31335      8.23161         0.114316     -0.163227     -0.052996
O	      6.30550      6.29966     10.19252        -0.005137     -0.053028     -0.080430
O	      8.31993      8.34729     10.46397         0.117066     -0.014178     -0.199554
