# total energy = -102.72247716 eV
 
CRYSTAL
PRIMVEC
0.000071 2.103088 2.100548 
6.083361 4.272629 -6.367920 
-4.090058 2.150346 -2.147969 
PRIMCOORD
16 1
Li	      6.05607      6.37816     -4.26830         0.001904     -0.008114      0.007946
Li	     -2.03086      4.26476     -2.15501        -0.000764      0.010304     -0.009016
Li	      1.91216      6.21025     -4.10111         0.001061      0.010801     -0.011608
Li	      2.11244      4.43459     -2.32361        -0.001063     -0.010277      0.012325
Ti	      3.82985      6.38783     -6.37754        -0.512300     -0.010743      0.014365
Ti	      0.19588      2.15296     -2.14639         0.515509      0.008624     -0.014406
Ni	      0.02126      4.34459     -4.33421        -0.085006     -0.052894      0.051605
Ni	      4.00333      4.19709     -4.19014         0.085899      0.051329     -0.049711
O	     -0.03279      6.39759     -4.28588        -0.000277      0.000403     -0.000866
O	     -0.02626      4.14020     -2.03481         0.016968     -0.136628      0.142609
O	      2.01221      4.27066     -4.26242         0.000217      0.001306      0.000275
O	     -0.04856      2.24811     -0.14094        -0.012101      0.051973     -0.056451
O	      1.99344      2.04786     -2.04409        -0.558182      0.009521     -0.005378
O	      2.03237      6.49241     -6.47990         0.552264     -0.009665      0.004683
O	     -2.00926      2.01933     -2.01547         0.012124     -0.050440      0.056599
O	      4.05189      6.50306     -4.38891        -0.016254      0.134502     -0.142972
