# total energy = -217.42215240 eV
 
CRYSTAL
PRIMVEC
0.007256 6.309634 6.392656 
6.147063 -0.000129 6.400475 
4.090698 4.204364 0.006770 
PRIMCOORD
36 1
Li	      6.17947      6.27508     12.69195        -0.072333      0.012833     -0.045595
Li	      4.17156      8.34318      8.60143        -0.033137      0.048314      0.016191
Li	      4.16820      6.22769     10.56614        -0.087282     -0.001872      0.053914
Li	      6.20638      8.31227     10.60479        -0.045799     -0.019122     -0.003356
Li	      4.08668      6.33309      2.19104        -0.016183     -0.062367      0.003434
Li	      6.14548      4.24250      6.36768         0.047526     -0.011404     -0.049279
Li	      8.12293      6.35652     10.67894         0.029076     -0.009131      0.005803
Li	      4.13537      6.29536      6.41466        -0.042717     -0.003077     -0.001664
Li	      4.14738      4.23231      8.58250        -0.011180     -0.007379     -0.011522
Sc	      2.15639      6.22770      8.52750        -0.012037      0.026518      0.086714
Sc	      4.19486      2.14797      6.37916         0.152867     -0.092510     -0.041921
Ti	      8.13455      4.17638      8.50853         0.085477     -0.052766     -0.262649
Fe	      8.17219      8.34035     12.70974         0.053247      0.110574      0.385490
Fe	      4.12628      4.30423      4.30903         0.012095     -0.126886     -0.115488
Ni	     10.18653      8.41934     10.64869         0.017187     -0.093829      0.047168
Ni	      6.13758      6.31062      4.32169         0.050514     -0.076861     -0.033078
Ni	      6.07311      8.44491      6.42599        -0.060060      0.062141     -0.051538
Ni	      6.10019      6.33469      8.53973        -0.017797      0.038189     -0.123174
O	      2.07522      2.16319      2.00683        -0.016707      0.060586      0.110058
O	      4.00601      4.25002      2.34239        -0.062752      0.007871     -0.122331
O	      4.06724      2.29439      4.31985         0.094803     -0.087076     -0.008948
O	      6.10998      4.31017      4.23831         0.126055     -0.100066      0.003173
O	      6.27001      2.10523      6.37532        -0.293912      0.002275      0.016404
O	      8.22503      4.22553      6.58350        -0.002568      0.000890      0.172813
O	      2.01465      4.14615      4.21848        -0.012546      0.123897     -0.043864
O	      4.11245      6.23497      4.28231        -0.140155      0.268147     -0.002571
O	      4.06567      4.22377      6.25150         0.009670      0.001430      0.233310
O	      6.16063      6.39124      6.51080         0.009577     -0.026651     -0.073521
O	      6.23396      4.15022      8.58439         0.020482      0.000642     -0.046622
O	      8.09553      6.18151      8.49718         0.081433     -0.052945      0.034808
O	      1.97957      6.32175      6.46306         0.022350     -0.035479     -0.091241
O	      3.94866      8.43189      6.30602         0.234398     -0.005906      0.063356
O	      4.18183      6.28242      8.55291        -0.125745      0.005308     -0.025257
O	      6.16786      8.41431      8.47857         0.046888      0.074098      0.104388
O	      6.12614      6.22810     10.43523        -0.010869      0.020088      0.252353
O	      8.19525      8.39708     10.85789        -0.029866      0.001528     -0.435757
