# total energy = -231.31354778 eV
 
CRYSTAL
PRIMVEC
-0.027083 6.351029 6.217459 
6.404864 -0.104954 6.294468 
4.181815 4.197710 0.018250 
PRIMCOORD
36 1
Li	      8.39454      1.93356      6.27103        -0.075570      0.070918      0.028130
Li	      4.12286      0.01787      4.08822        -0.122522      0.072160     -0.022761
Li	      6.34862      8.47981     10.30789        -0.065105      0.116458      0.016182
Li	      6.40373      6.07378      4.24911         0.126909     -0.088804      0.043648
Li	      4.39132      4.12043      4.18450         0.131455     -0.128044      0.043950
Li	      6.26586      4.24154      6.20680         0.007392     -0.005147     -0.050353
Li	      4.31316      6.17823      6.32494         0.076468     -0.027089      0.059718
Li	      4.17631      4.32775      8.33285        -0.075818      0.086150     -0.073137
Li	      6.22146      6.34552      8.35789        -0.061668      0.077839     -0.047929
Sc	      4.28987      2.08400      6.13269        -0.003123      0.050565     -0.039633
Sc	      2.18866      4.17601      6.26730         0.092294     -0.264207      0.296163
Ti	      2.08650      4.13061      2.05791        -0.020930      0.025295     -0.415665
Ti	     10.40436      8.35550     10.54965        -0.062015      0.118828      0.179271
Cr	      4.19091      6.29963      2.11722         0.070607     -0.023018     -0.251692
Co	      2.09181      6.33303      4.16495        -0.344040      0.347489      0.152425
Ni	      6.39601      6.28395     12.48291        -0.132345     -0.005170      0.009085
Ni	      6.33773     10.47693      8.36173        -0.083358      0.105101      0.001911
Ni	      4.21894      8.34691      8.40824        -0.012732     -0.027342      0.020332
O	      6.35718      4.14645      4.04736        -0.082381     -0.001907      0.166402
O	      2.06819      2.20406      2.15505        -0.124407      0.150254     -0.028451
O	      4.15831      4.24810      2.10198        -0.117183      0.023019      0.103693
O	      4.26817      2.04142      4.18186         0.021759     -0.005209      0.077721
O	      6.38048      1.97552      6.40461         0.107503      0.112090      0.164959
O	      8.50687      4.14686      6.47030        -0.075725     -0.146712      0.266650
O	      2.01421      4.37104      4.10511        -0.112195     -0.400617      0.022070
O	      4.05488      6.44636      4.13243        -0.091319     -0.052984      0.010497
O	      4.22742      4.13105      6.26862        -0.046081      0.110447      0.004157
O	      6.38110      6.31805      6.28160        -0.046135      0.021351     -0.012485
O	      6.52387      4.02380      8.46877         0.085150     -0.001360      0.168254
O	      8.58502      6.08464      8.49005         0.109490     -0.180605     -0.803373
O	      2.02562      6.32006      6.15520         0.239397      0.002057      0.586734
O	      4.17390      8.46158      6.16084        -0.090706     -0.068277     -0.400329
O	      4.08215      6.35729      8.33218         0.252489     -0.143266     -0.130035
O	      6.23806      8.44775      8.30549         0.115943     -0.127257     -0.059654
O	      6.51595      6.09242     10.41711         0.131754      0.037147     -0.117336
O	      8.55070      8.21879     10.40708         0.276748      0.169847      0.030881
