# total energy = -228.93136100 eV
 
CRYSTAL
PRIMVEC
0.076749 6.382848 6.249416 
6.311014 0.102646 6.223814 
4.265060 4.295462 0.010212 
PRIMCOORD
36 1
Li	      4.33897     10.51701      6.22944         0.064388     -0.159671      0.002236
Li	      2.36824      8.57090      6.20331         0.189547      0.009288      0.019340
Li	      4.33560      8.52475      8.24371         0.005705     -0.095512     -0.104020
Li	      8.47733      4.36406      4.18655        -0.039179     -0.006348     -0.067367
Li	      6.42968      6.43695      4.25966         0.020285     -0.013140     -0.022416
Li	      4.28305      8.56878      4.32152         0.017305     -0.027693      0.059434
Li	      4.36844      6.50109      6.26204         0.031275      0.173519      0.063393
Li	      4.26458      4.37928      8.25957        -0.015166      0.099284      0.010693
Li	      6.31894      6.42987      8.27034        -0.053190     -0.127978      0.026360
Sc	      6.31606      2.25646      8.23993         0.123459      0.134607      0.027563
Sc	      2.19210      4.21959      2.07505        -0.119528     -0.165160      0.118088
Ti	      6.26229      2.15282      4.17087        -0.216160     -0.129655      0.002730
Ti	      2.21174      6.45689      4.31667         0.136372      0.116117      0.125680
Cr	      2.30187      6.42185      8.30916         0.483929     -0.007937      0.030640
Cu	      6.34563      4.45622      6.22787        -0.091948     -0.040655     -0.035964
Ni	      8.43229      6.49833      6.22567         0.011605     -0.006362      0.005635
Ni	      6.36179      8.52736      6.27116        -0.101503      0.039380      0.055848
Ni	      4.27081      4.30896      4.19503         0.021259      0.004194     -0.018210
O	      4.40435      8.54454      6.26689        -0.188151      0.117172     -0.043845
O	      2.09084      2.05313      2.09070        -0.078348      0.002429     -0.026325
O	      4.34338      4.35540      2.09251         0.017104      0.013361     -0.151204
O	      4.35395      2.20899      4.13929         0.233222     -0.054639     -0.055765
O	      6.35559      4.24162      4.08758         0.156868      0.025478     -0.054916
O	      6.28429      2.26109      6.13037         0.016799     -0.144300     -0.123208
O	      8.37135      4.42287      6.24327        -0.089367     -0.071954     -0.056785
O	      2.17457      4.39111      4.17507        -0.056916      0.080577     -0.173304
O	      4.13773      6.41931      4.13292        -0.193228      0.069536     -0.013142
O	      4.27971      4.24585      6.20853         0.194630      0.078957      0.128043
O	      6.40020      6.51080      6.24940        -0.040335      0.034922      0.025382
O	      6.40271      4.33484      8.24481         0.054760     -0.047119      0.168167
O	      8.51732      6.42268      8.41866        -0.035803      0.004971      0.033708
O	      2.18582      6.34154      6.25165         0.011778      0.099321     -0.248764
O	      4.09557      6.44524      8.32271        -0.398595     -0.044735      0.110788
O	      6.42976      8.79573      8.40315        -0.052623      0.074893      0.185722
O	      6.48653      6.62581     10.36602         0.067545      0.166216     -0.024742
O	      8.41004      8.46625     10.42799        -0.087792     -0.201364      0.020528
