# total energy = -229.23252022 eV
 
CRYSTAL
PRIMVEC
0.063735 6.360815 6.224677 
6.387716 0.059118 6.229572 
4.295529 4.281128 0.002002 
PRIMCOORD
36 1
Li	      2.20570      8.39491      6.28793         0.043036     -0.223235      0.091675
Li	      6.49947      8.51016     10.33446         0.026465     -0.066664      0.027645
Li	      4.28846      6.36932      2.10004        -0.064272     -0.053269      0.026586
Li	      2.24206      4.25479      2.13704         0.151690     -0.031768      0.053101
Li	      4.23571      4.33786      4.08017        -0.123305      0.082306     -0.098536
Li	      2.20486      6.35365      4.16722         0.020231     -0.038201      0.155460
Li	      2.16276      4.34542      6.25794        -0.063036      0.233298     -0.053656
Li	      4.25637      6.39905      6.23894        -0.246788      0.057008     -0.023074
Li	      6.49193      6.49135      8.32983         0.051825      0.062106      0.060393
Sc	      8.58841      6.46756      6.32335         0.088358      0.033147      0.083546
Sc	      6.43533      4.25537      6.34072         0.055779     -0.093679      0.081121
Ti	      4.36675      6.36557     10.30302         0.254678     -0.046578      0.039223
Ti	      2.04374      2.22029      4.09842        -0.399054      0.365573     -0.076726
Cr	      0.05522      4.24434      4.15358         0.086815     -0.088342      0.128314
Cu	      4.39950      8.55406      8.22810        -0.119366     -0.085286     -0.049168
Cu	      8.53250      8.52604      8.30271         0.013305      0.051103      0.011702
Ni	      0.13183      6.37873      6.24868        -0.000034      0.003044     -0.054236
Ni	      2.15651      6.35445      8.23696        -0.050212      0.066762     -0.151660
O	      6.41682      8.57400      8.31897         0.107747     -0.123810     -0.023411
O	      2.20968      2.08899      2.17702         0.211571      0.073619      0.186756
O	      4.33003      4.16289      2.05743        -0.113137      0.032975      0.219754
O	      4.20627      2.05264      4.08775        -0.003860     -0.127329      0.112586
O	      6.56030      4.38146      4.18129         0.054159      0.025260      0.036925
O	      6.36309      2.19471      6.20878        -0.062435      0.205896     -0.004351
O	      8.56076      4.34460      6.11307        -0.166687      0.066706     -0.148479
O	      2.08591      4.12841      4.14134        -0.000462     -0.359096      0.014512
O	      4.44142      6.47745      4.14918         0.415704     -0.005265     -0.073278
O	      4.34328      4.26598      6.30019        -0.034965     -0.007851      0.000259
O	      6.50336      6.35560      6.09648         0.055858     -0.031816     -0.080145
O	      6.43893      4.32355      8.38781        -0.139702     -0.007567     -0.133596
O	      8.55023      6.50648      8.32939         0.005552     -0.060651      0.024706
O	      2.10858      6.40622      6.22571         0.310905      0.011899     -0.168465
O	      4.32382      8.58488      6.20586        -0.056425     -0.142291      0.039573
O	      4.29937      6.42576      8.36437         0.083738      0.035222      0.008563
O	      6.30639      6.33036     10.39930        -0.308501      0.022481     -0.183559
O	      8.68506      8.67564     10.28180        -0.085177      0.164292     -0.080060
