# total energy = -228.20860698 eV
 
CRYSTAL
PRIMVEC
0.039585 6.396429 6.215066 
6.335112 0.035217 6.219327 
4.239038 4.282703 0.007756 
PRIMCOORD
36 1
Li	      2.17317      2.07948      0.16150         0.067348     -0.135670      0.106628
Li	      2.22185      0.16862      2.04699        -0.029763      0.163624     -0.014376
Li	      4.06420      2.06344      2.01692        -0.130416      0.035088     -0.028207
Li	      6.48371      2.24632      8.22146         0.142553     -0.000915     -0.041729
Li	      2.08470      4.10268      2.02783         0.011742     -0.223676      0.003050
Li	      2.16886      2.07776      4.02752         0.000124     -0.019326     -0.120163
Li	      6.38966      4.30431      6.30147         0.011572      0.043127     -0.020608
Li	      6.37594      8.56473      6.30604        -0.032088      0.013304      0.044309
Li	      4.17364      6.49016      6.32578        -0.064555      0.059673      0.001800
Sc	      4.30494      4.24257      0.13202         0.092247     -0.065633      0.265723
Sc	      4.31702      8.43949      4.16295         0.081483     -0.196726      0.132259
Ti	      6.37845      2.29057      4.10444        -0.082624      0.405573     -0.032349
Ti	      4.14482      4.40260      4.05483        -0.108883      0.179787     -0.403918
Cr	      8.38692      6.47038      6.23078        -0.062091      0.048346     -0.046788
Cu	      4.18618      0.07022      4.11363        -0.077972     -0.022479      0.133512
Cu	      2.16451      6.38870      4.15841         0.023360     -0.091020     -0.045963
Cu	      4.26320      4.32100      8.23543        -0.041507      0.001576     -0.185983
Ni	      6.34560      6.41005      8.26407        -0.012097     -0.005621     -0.160824
O	      4.28939      6.31115      8.38877        -0.047265     -0.000814     -0.099055
O	      2.10809      2.14145      2.06662         0.014597      0.007117     -0.036157
O	      4.23464      4.28342      2.19009        -0.029968      0.027018      0.279943
O	      4.32987      2.28231      4.20696         0.108528      0.058432     -0.056240
O	      6.24602      4.16826      4.15354         0.036724     -0.250313      0.007042
O	      6.18641      2.11683      6.10559         0.069207      0.054085     -0.060734
O	      8.49266      4.53197      6.11934        -0.024301     -0.069009      0.085937
O	      2.21079      4.26552      4.10311         0.069454      0.190700      0.011100
O	      4.30212      6.31114      4.18744        -0.076995     -0.091808      0.037331
O	      4.25241      4.10700      6.09921         0.041858      0.003303      0.147396
O	      6.56771      6.43285      6.21947        -0.050723     -0.000762     -0.035097
O	      6.26219      4.32591      8.32183         0.044087     -0.049783     -0.098984
O	      8.43034      6.55852      8.25829         0.048863      0.088826     -0.098028
O	      2.12794      6.40128      6.12041         0.030771      0.000940      0.217999
O	      4.28613      8.60052      6.17694         0.006231     -0.048391     -0.032944
O	      6.43257      8.50233      8.43286        -0.006079      0.008021      0.098886
O	      6.34529      6.44719     10.37835         0.001004      0.009591     -0.013724
O	      8.40679      8.53649     10.45007        -0.024423     -0.126185      0.058954
