# total energy = -228.07485933 eV
 
CRYSTAL
PRIMVEC
0.010356 6.417509 6.346021 
6.228443 0.036059 6.319659 
4.176681 4.284950 0.000089 
PRIMCOORD
36 1
Li	      8.26820      2.20960      6.36720        -0.043927      0.062024      0.082003
Li	      2.05808      0.09342      2.14225        -0.028175      0.017020      0.044262
Li	      6.24513      2.28676      4.22167         0.055830      0.099346      0.010640
Li	      4.20641      6.38467      2.11585         0.018509     -0.004154     -0.034448
Li	      2.12993      4.22363      2.15192         0.039776     -0.074817      0.031677
Li	      6.25889      6.34877      4.17640        -0.047509     -0.072453     -0.004160
Li	      4.25880      4.30704      4.10389         0.034824      0.084221     -0.088969
Li	      4.19766      2.15363      6.31323         0.073392     -0.030496      0.032017
Li	      2.12676      6.42349      4.21420         0.053868     -0.026853      0.008734
Sc	      6.18555      0.19353      6.35697        -0.103281      0.216057      0.080178
Sc	      2.20670      4.33222      6.29424         0.088994     -0.036256      0.065258
Ti	      4.19257      8.41871      4.22973         0.116465     -0.436697      0.044615
Ti	      6.34386      6.41690      8.47374         0.547902     -0.014353     -0.099604
Cr	      4.04237      2.17731      2.23791         0.036685      0.441663      0.046073
Cu	      8.24483      4.31015      4.24020         0.069701      0.125748      0.213683
Cu	      6.29264      4.19977      6.26863        -0.069650     -0.021715      0.001163
Cu	      4.12979      6.44741      6.33009        -0.050953      0.038683     -0.140803
Cu	      4.19864      4.28343      8.45262        -0.218311     -0.481898     -0.013586
O	      4.15162      6.55453      4.27140        -0.017406      0.201504     -0.132638
O	      8.42418      8.66446     10.41261         0.040488      0.030102     -0.003889
O	      2.25590      2.11631      2.07458         0.014733     -0.024710     -0.014187
O	      4.16559      4.15448      2.09985         0.000777     -0.140710     -0.003899
O	      4.15595      2.11029      4.04470         0.001035      0.037514     -0.073739
O	      6.31998      4.29765      4.28171        -0.092104      0.015479     -0.271281
O	      6.24963      2.20777      6.34799        -0.028046     -0.460847      0.065119
O	      8.26289      4.34565      6.34451         0.284939      0.101303     -0.164654
O	      1.94248      4.26442      4.28188        -0.110873     -0.000202     -0.043097
O	      4.25930      4.20259      6.45992         0.040083     -0.036762     -0.077728
O	      6.18839      6.39579      6.47805        -0.047734      0.189554      0.198663
O	      6.30153      4.42566      8.57826         0.174324      0.197860      0.142580
O	      8.17785      6.50182      8.49825        -0.385793     -0.095444      0.020017
O	      2.08902      6.38114      6.32250         0.020453      0.044336     -0.040483
O	      4.20465      8.71053      6.25054        -0.036680      0.051530     -0.050593
O	      4.19820      6.51350      8.32574        -0.157084      0.131530      0.333339
O	      6.06443      8.42416      8.38704        -0.240218     -0.145919     -0.068510
O	      6.13240      6.38110     10.47584        -0.035033      0.018814     -0.093753
