# total energy = -228.43381087 eV
 
CRYSTAL
PRIMVEC
0.053659 6.228075 6.201243 
6.383315 0.016772 6.237681 
4.271736 4.192341 -0.005068 
PRIMCOORD
36 1
Li	      2.22547      8.32580      6.19842         0.042606      0.040544     -0.024320
Li	      4.38755      8.27438      8.39851        -0.005467      0.024032      0.029632
Li	      4.32847      6.28324     10.22852        -0.101120      0.042619      0.040741
Li	      6.36522      8.32924     10.28370        -0.066543      0.057124     -0.002014
Li	      4.31164      6.23452      2.07787         0.004993     -0.020053      0.006073
Li	      6.42643      6.25149      4.15759         0.047547     -0.054600      0.022803
Li	      4.31702      4.15152      4.10593         0.048630     -0.034160      0.017370
Li	      6.35366      8.31693      6.25242        -0.030757      0.008992      0.004692
Li	      4.36064      6.25467      6.25148         0.012763     -0.053113      0.000666
Sc	      4.22559      2.11523      6.11452        -0.047999     -0.024026     -0.091274
Sc	      6.39467      4.14707      6.09837         0.047092     -0.026729     -0.180595
Ti	      2.23809      3.97340      2.12871         0.000771     -0.324382     -0.028048
Ti	      2.29121      6.31181      4.24248         0.336615      0.164233      0.129091
Cr	      6.48404     10.40723      8.29652        -0.046152      0.103521     -0.024787
Ni	      6.43472      6.27306     12.40341        -0.051768      0.102101      0.039023
Ni	      4.31137      8.34190      4.14065        -0.001348     -0.043692      0.016127
Ni	      8.52249      8.37931      8.29098         0.029593     -0.015304      0.020277
Ni	      6.35635      6.33273      8.31598        -0.090241      0.062698     -0.018194
O	      2.12359      2.12041      2.10078         0.016091      0.302203     -0.018242
O	      4.23341      4.17074      1.96118        -0.074347      0.008123      0.101518
O	      4.25176      2.08925      4.17324        -0.011007      0.032465      0.031520
O	      6.38650      4.21315      4.06581        -0.017031     -0.068491      0.063918
O	      6.34737      2.02963      6.23851         0.019299      0.079089      0.020330
O	      8.51063      4.18874      6.37553        -0.057166     -0.015177      0.091715
O	      2.18138      4.25402      4.02337         0.049261      0.049263     -0.091336
O	      4.15404      6.28803      4.17470        -0.256645     -0.033130      0.002423
O	      4.35988      4.14690      6.30881        -0.082869      0.060760     -0.104897
O	      6.41762      6.23176      6.28475         0.009280     -0.029629     -0.143674
O	      6.53315      4.20849      8.32770         0.065887     -0.123794      0.006662
O	      8.46512      6.22550      8.41285         0.148826     -0.111442      0.044206
O	      2.13379      6.28325      6.18258         0.154171     -0.006021     -0.169214
O	      4.31458      8.55306      6.09147         0.004355     -0.199340      0.102548
O	      4.20374      6.22406      8.26550         0.030729      0.085752     -0.009228
O	      6.48112      8.43039      8.26131        -0.127022     -0.007788     -0.005485
O	      6.52434      6.20142     10.41220         0.034561      0.111411     -0.035570
O	      8.60210      8.24627     10.28386        -0.035585     -0.144058      0.155542
