# total energy = -100.79459359 eV
 
CRYSTAL
PRIMVEC
0.000144 2.068203 2.069614 
9.111336 -4.265485 4.268870 
2.178626 4.135966 -2.068760 
PRIMCOORD
16 1
Li	      0.21583      2.07705      2.06292        -0.001716     -0.002348      0.004786
Li	      2.01435      2.04767      0.02240         0.001986      0.001580     -0.003037
Li	      4.12769      2.16022      1.97757         0.018827      0.029408     -0.032295
Li	      7.21295     -2.30213      4.37695        -0.020573     -0.032147      0.034633
Ti	      6.57357      2.02519      0.04525        -0.469578      0.069217     -0.071371
Ti	      6.94428     -0.09998      2.17099         0.483725     -0.069346      0.073163
Ni	      4.14902      4.22953     -0.09137         0.054432     -0.094137      0.105306
Ni	      9.37050     -0.23461      4.37692        -0.052829      0.098179     -0.103458
O	      6.75886      1.99675      2.14289        -0.001818      0.001561     -0.003635
O	      6.64195      0.03378      4.10476        -0.013065      0.102446     -0.095456
O	      8.74744     -0.10867      2.18034        -0.507820      0.045545     -0.046221
O	      9.05047     -2.14364      4.21622        -0.024223     -0.134805      0.140525
O	      2.20400      4.13041      0.00819         0.000655      0.000210     -0.003283
O	      2.29023      2.00277      2.13800         0.021802      0.133197     -0.140586
O	      4.77089      2.03468      0.03513         0.493535     -0.042738      0.048471
O	      4.69791     -0.17630      2.24991         0.016661     -0.105822      0.092458
