# total energy = -240.79413269 eV
 
CRYSTAL
PRIMVEC
0.022363 6.400524 6.254729 
6.459605 0.019457 6.258210 
4.310860 4.273769 0.008635 
PRIMCOORD
36 1
Li	      4.43138     10.51979      6.21256         0.013646     -0.013825     -0.045788
Li	      4.26645      2.18392      2.02537         0.183058     -0.092577      0.136240
Li	      6.45340      2.10771      4.23026        -0.008239     -0.048841     -0.121718
Li	      2.15444      2.25024      4.23065         0.035185      0.029285      0.092305
Li	      4.16501      4.26856      4.19816        -0.036946     -0.033584      0.049536
Li	      4.30418      2.17498      6.19716        -0.066283      0.180730      0.104686
Li	      4.41521      8.50818      4.31238         0.024919      0.020292     -0.288889
Li	      2.23035      6.31377      4.28027        -0.001100     -0.047845     -0.250218
Li	      2.01723      4.33604      6.07365         0.157832     -0.122138      0.086026
Sc	      6.39114      4.27586      2.03328         0.368216     -0.928039      0.593773
Sc	      6.50804      6.47842      8.31654         0.240769      0.493265      0.187290
Ti	      4.41596      0.15046      4.29414         0.464941      0.739556     -0.868835
Ti	      6.36325      4.27093      6.13869        -0.790578      0.361888      0.271750
Mn	      4.29932      6.42726      2.17890        -0.564303      0.317848     -0.027568
Fe	      2.28201      4.18274      2.23253        -0.318021      0.686333     -0.124034
Fe	      8.60059      8.53122      8.46429         0.559132     -0.073674     -0.552325
Co	      2.27019      8.50298      6.18675        -0.234536      0.189682      0.016678
Co	      4.28111      6.47876      6.10287         0.198195     -0.308511      0.028470
O	      2.12446      2.16311      2.07937         0.196674     -0.047077     -0.835073
O	      4.28449      4.30013      2.06820         0.086999      0.007729     -0.100135
O	      4.32370      1.97827      4.16746        -0.050102     -0.533404      0.204540
O	      6.56692      4.22596      4.25549         0.065523      0.093756      0.184474
O	      6.50348      2.33253      6.42285         0.676909     -0.234080     -0.177642
O	      8.50930      4.30624      6.23903         0.260161     -0.978834      0.070147
O	      2.17873      4.26076      4.07052        -0.070597     -0.050041      0.256015
O	      4.31307      6.40114      4.04953         0.070711     -0.025454      0.087363
O	      4.47301      4.31199      6.33024         0.423822     -0.035029     -0.307190
O	      6.44999      6.25621      6.26984        -0.035564     -0.178913     -0.184893
O	      6.49452      4.32783      8.26098         0.835875     -0.243493     -0.188187
O	      8.60231      6.45879      8.35192         0.277203     -1.216891     -0.036960
O	      2.18682      6.39765      6.27224         0.074624      1.064844     -0.377098
O	      4.30117      8.46446      6.26957        -1.154475      0.047183     -0.092323
O	      4.31290      6.33725      8.44456        -0.077718      0.850180      0.295232
O	      6.61045      8.55677      8.31390        -1.524120      0.280481     -0.152095
O	      6.32157      6.44034     10.41829        -0.380995     -0.039385      0.297772
O	      8.61902      8.68421     10.37086         0.099183     -0.111414      1.768675
