# total energy = -239.83496189 eV
 
CRYSTAL
PRIMVEC
-0.000581 6.246045 6.384935 
6.321371 -0.014388 6.398840 
4.215804 4.174707 -0.010904 
PRIMCOORD
36 1
Li	      6.33564      4.16158      2.15493        -0.028138      0.034571      0.047223
Li	      4.29535      6.28245     10.57391        -0.044040      0.132664      0.005648
Li	      6.26362      8.24367     10.62595        -0.124396      0.008199     -0.018577
Li	      4.19068      6.23937      2.13458         0.042580     -0.010283      0.004384
Li	      8.34522      6.29979      6.38334        -0.103189      0.025536     -0.008057
Li	      8.37115      6.23502     10.62275        -0.056291      0.023899     -0.039216
Li	      6.31421      8.22386      6.39178         0.036908     -0.060846      0.071895
Li	      4.28922      6.24826      6.41427         0.072994     -0.023877      0.031180
Li	      6.28604      6.28816      8.52076        -0.017871      0.020555     -0.078030
Sc	      6.36418      4.24862      6.37647        -0.057463      0.270014     -0.303856
Sc	      8.29582      8.33504      8.56655        -0.335659     -0.011439     -0.374776
Ti	      2.13868      8.20615      6.27868        -0.488630     -0.352667      0.664291
Ti	      4.22723      4.18399      4.32415         0.457364     -0.322966      0.091112
Mn	      4.28197      8.23625      8.52846        -0.066763      0.026936      0.242063
Fe	      6.31956      6.26470     12.69164         0.049164      0.109209      0.400274
Fe	      8.41850      4.30223      8.56961         0.366268     -0.171031     -0.350487
Fe	      0.04293      4.13494      4.21005         0.205203     -0.075137      0.107654
Cu	      6.33516      6.25533      4.29549        -0.043011     -0.226518      0.035316
O	      2.29193      2.15300      2.01822         0.036620      0.021500     -0.475474
O	      4.17398      4.08651      2.16421         0.043668     -0.028468     -0.091852
O	      4.08902      2.20747      4.28749         0.521952      0.208731     -0.046256
O	      6.12256      4.03472      4.29676        -0.162219     -0.152209      0.038556
O	      6.49803      2.03483      6.43606         0.179107      0.010876     -0.036126
O	      8.47677      4.10006      6.46497        -0.028786     -0.040191     -0.088646
O	      2.22643      4.28608      4.15940        -0.740031      0.225924      0.140635
O	      4.34687      6.18652      4.21238        -0.569530      0.401771     -0.091091
O	      4.23383      4.17867      6.31444        -0.018547      0.037671      0.050710
O	      6.32999      6.22335      6.32974        -0.044072     -0.101231      0.547139
O	      6.34194      4.13702      8.48045        -0.113722      0.000958      0.751626
O	      8.43463      6.24799      8.50056         0.018623      0.228473      0.020156
O	      2.04172      6.35884      6.40244         0.060825      0.251017     -0.101753
O	      4.11980      8.40176      6.35273         0.098852     -0.212888     -0.662904
O	      4.19213      6.25819      8.55415         0.031393      0.001103     -0.003750
O	      6.24177      8.29767      8.51421         0.087741      0.022803      0.023689
O	      6.29294      6.17832     10.78973         0.017431     -0.267177     -0.375917
O	      8.41174      8.30829     10.72396         0.715667     -0.005485     -0.126781
