# total energy = -239.27067953 eV
 
CRYSTAL
PRIMVEC
0.023048 6.461133 6.250870 
6.385776 -0.003603 6.277367 
4.253482 4.322130 0.001352 
PRIMCOORD
36 1
Li	      4.32450      4.23423      0.18359         0.065823     -0.057369      0.015759
Li	      6.29188     10.71868      8.21306        -0.020611      0.015240     -0.020351
Li	      4.29090      8.82091      8.15004         0.030135      0.054618     -0.037605
Li	      4.29595      6.16753      2.08950         0.066512     -0.030915      0.049412
Li	      2.44441      4.27915      2.05828         0.010330     -0.045218      0.063050
Li	      4.32295      4.27337      3.95844         0.022986      0.032400      0.045613
Li	      2.22565      4.38409      6.31426         0.004085      0.023736     -0.050186
Li	      4.11395      6.58876      6.45163        -0.030959      0.041875     -0.141537
Li	      6.21722      6.52958      8.35548         0.011660      0.041349      0.031226
Sc	      2.09807      2.16801      4.00079         0.132425     -0.221402      0.030758
Sc	      6.36633      4.35327      6.45949        -0.131317     -0.011895     -0.174767
Ti	      6.32058      8.61086     10.30817        -0.276925     -0.137898     -0.334149
Ti	      8.49407      6.46521      6.48690        -0.171442      0.298747      0.134927
Mn	      2.11473      2.09847      0.07779         0.035030     -0.220584      0.161267
Fe	      4.28917      6.47082     10.33040         0.328295      0.192140     -0.442587
Fe	      0.03132      4.29324      4.14249        -0.133898      0.180271      0.053996
Fe	      2.20337      6.34460      4.22189        -0.019042     -0.140122     -0.125760
Ni	      4.23762      4.40125      8.33810        -0.057293     -0.374603      0.098406
O	      2.14187      2.18156      2.00238         0.044035      0.003856     -0.085090
O	      4.31395      4.28936      2.09414        -0.002147     -0.022809     -0.053212
O	      4.38790      2.17195      4.28992        -0.039551      0.070843      0.112263
O	      6.44671      4.25192      4.26251        -0.556713     -0.154200      0.122772
O	      6.42268      2.23715      6.21960        -0.072290     -0.013120      0.039365
O	      8.46683      4.51258      6.31343         0.161173      0.019881     -0.355082
O	      2.02244      4.30810      4.16369         0.053083     -0.005306     -0.028432
O	      4.27517      6.56838      4.14775         0.012059     -0.019336     -0.020489
O	      4.31018      4.09769      6.29686         0.035898     -0.152572      0.017368
O	      6.57855      6.44511      6.19504         0.220681     -0.044235      0.130044
O	      6.28740      4.38772      8.48050        -0.012962      0.078721     -0.183689
O	      8.55324      6.50698      8.34662        -0.021592      0.046925     -0.222595
O	      2.14945      6.39728      6.10274        -0.012602      0.063496      0.188880
O	      4.04122      8.66169      6.10762        -0.043132      0.010410      0.139141
O	      4.26004      6.37243      8.32877        -0.025375      0.354244      0.457903
O	      6.43029      8.61821      8.48490        -0.052535     -0.023739      0.317690
O	      6.44034      6.60277     10.42308         0.487672      0.067460      0.058960
O	      8.44957      8.53183     10.55088        -0.041500      0.079110      0.006728
