# total energy = -244.08652317 eV
 
CRYSTAL
PRIMVEC
-0.001904 6.345178 6.421370 
6.227418 0.009780 6.409503 
4.171146 4.240915 -0.012272 
PRIMCOORD
36 1
Li	      6.21634      2.19686      4.32123         0.029832      0.013601      0.059334
Li	      6.23406      2.10266      8.51043        -0.045262     -0.037953     -0.056192
Li	      4.20297      4.19773      4.44929         0.008379      0.005375      0.046861
Li	      4.10313      2.25757      6.33036         0.017871     -0.002604     -0.003790
Li	      6.15272      4.25026      6.35027         0.002754     -0.011911      0.019266
Li	     10.37827      8.49122     10.68011         0.054469     -0.016964      0.021804
Li	      6.33811      8.34420      6.46195        -0.005113      0.031971      0.008890
Li	      4.24015      6.29388      6.41415        -0.010443     -0.003702     -0.023191
Li	      6.21881      6.39652      8.38003         0.016839      0.004972     -0.116549
Sc	      6.18111      6.34988      4.40276        -0.174572      0.126079      0.291511
Sc	      4.15403      4.24874      8.42150         0.054350     -0.109490     -0.224354
Ti	      2.14619      6.31587      4.35540         0.141640     -0.117564      0.143376
Ti	      8.19152      4.33469      8.49549        -0.152873      0.169357      0.065165
Mn	      8.27329      2.12908      6.41538        -0.101270     -0.136892      0.012073
Fe	      6.18246      0.04481      6.35150         0.191546     -0.065341      0.223764
Fe	      6.19286      4.21119      2.16391        -0.077870      0.086790     -0.224877
Fe	      4.26271      8.47093      8.55519        -0.066243      0.038748     -0.181865
Fe	      4.26777      6.39474     10.72529         0.001561     -0.074696     -0.057115
O	      2.10292      2.24888      2.15684         0.027323      0.040775      0.114573
O	      4.04610      4.16044      2.12294        -0.114009     -0.022470      0.126518
O	      4.15599      2.04266      4.19586         0.015551     -0.074295      0.002723
O	      6.33245      4.29049      4.19486         0.211129     -0.037477      0.184933
O	      6.38469      2.03483      6.42230         0.046565      0.318515     -0.028418
O	      8.26418      4.23103      6.46832        -0.264605     -0.075287     -0.112794
O	      2.05623      4.33320      4.13563         0.004357      0.026734     -0.080503
O	      4.03306      6.34290      4.28292        -0.098388     -0.003494     -0.007704
O	      4.17953      4.19711      6.48307        -0.013928      0.064715      0.096955
O	      6.22399      6.40684      6.32985         0.042657     -0.080775     -0.222286
O	      6.33519      4.22959      8.53403         0.232572      0.024496      0.031085
O	      8.32704      6.28336      8.66837        -0.026385     -0.132022      0.063118
O	      2.10139      6.37347      6.33544         0.171526      0.080504     -0.184840
O	      3.99009      8.53844      6.52294        -0.027914     -0.204872      0.047638
O	      4.18196      6.36421      8.64093         0.080966      0.078094      0.231186
O	      6.21725      8.46480      8.49267         0.017082     -0.078862      0.059828
O	      6.30325      6.31657     10.70133        -0.196096      0.017811     -0.246615
O	      8.33922      8.38999     10.66602         0.006002      0.158132     -0.079510
