# total energy = -237.27566017 eV
 
CRYSTAL
PRIMVEC
-0.030225 6.291311 6.224276 
6.436361 -0.050104 6.244461 
4.283041 4.199739 -0.025352 
PRIMCOORD
36 1
Li	     10.57286      4.05722      6.20189        -0.028277     -0.085070      0.026915
Li	      8.59840      2.19801      6.21448         0.023950     -0.004858     -0.033184
Li	      8.66726     10.34009     10.42870         0.032258     -0.054407      0.013217
Li	      6.45043      2.35876      8.25757        -0.024999     -0.034364      0.001108
Li	      8.41817      4.02586      8.29555        -0.001896      0.027333     -0.001947
Li	      6.42136      4.14786      6.36472        -0.022847      0.005809     -0.098585
Li	      6.36195      4.20273     10.20875        -0.033364     -0.059694      0.061833
Li	      2.18106      4.15033      6.20836         0.033378      0.016995     -0.016556
Li	      4.50393      4.13855      8.31711        -0.062444      0.021365      0.008256
Sc	      2.09808      6.28193      8.25733         0.073149     -0.037582     -0.009018
Sc	      8.46639      6.23280     10.36211         0.030151      0.089469     -0.017991
Ti	      8.62204      6.09473      6.30985         0.156820     -0.405299     -0.073734
Ti	      4.35802      6.36551      6.16061        -0.050935      0.511635     -0.328783
Mn	      6.40098      8.31839     10.41130         0.001374      0.014031      0.124533
Mn	      4.25724      4.18822      4.13453        -0.002659     -0.015104      0.043770
Co	      4.27003      8.33001      8.32785        -0.438959      0.170857     -0.221105
Cu	      2.12742      2.13119      4.12121        -0.057432      0.032240      0.017992
Ni	      6.39021      6.17152      8.30634         0.079400      0.083199      0.037633
O	      2.31403      2.05678      2.13624        -0.355940     -0.104400      0.056484
O	      4.33391      3.99802      2.15246        -0.009407     -0.073515     -0.002336
O	      4.45986      1.99253      4.14872         0.210790      0.007262      0.949309
O	      6.24666      4.27369      4.10781        -0.010025     -0.101879      0.007053
O	      6.23722      2.05042      6.19821        -0.200831     -0.007470      0.013015
O	      8.55165      4.28792      6.22285        -0.019185      0.356992      0.042646
O	      2.31054      4.15864      4.12570         0.099812      0.097372     -0.024166
O	      4.16818      6.42317      4.24926        -0.146080     -0.104585      0.093897
O	      4.27886      4.26288      6.11657        -0.022661      0.021665     -0.040711
O	      6.40174      6.30518      6.15543         0.008857      0.025183      0.071409
O	      6.42067      4.20997      8.30673        -0.005172     -0.086880     -0.037625
O	      8.51597      6.30394      8.18521         0.114409      0.029537     -0.134805
O	      2.30512      6.27139      6.21017         0.090877     -0.017029      0.097704
O	      4.28489      8.27575      6.40156         0.127383     -0.470831     -1.041174
O	      4.26422      6.34259      8.20447        -0.100152      0.041517      0.050928
O	      6.24017      8.32082      8.38050         0.483168      0.112009      0.259807
O	      6.44669      6.17840     10.40076        -0.007278      0.036801      0.068510
O	      8.31330      8.33261     10.38574         0.034770     -0.038301      0.035699
