# total energy = -237.72122768 eV
 
CRYSTAL
PRIMVEC
-0.016932 6.460324 6.290269 
6.230272 0.040125 6.233075 
4.187669 4.303030 -0.007454 
PRIMCOORD
36 1
Li	      4.22534      2.08786      2.20929        -0.025626     -0.023348      0.019554
Li	      4.12643      6.54889     10.33811         0.030473     -0.017652      0.011820
Li	      6.22768      8.54513     10.32220         0.020336     -0.081880     -0.013515
Li	      2.12222      4.34225      2.11072         0.056667     -0.025232      0.028170
Li	      4.17313      4.24099      4.20773        -0.042140     -0.016624     -0.012496
Li	      8.27012      6.57301     10.44423         0.022324      0.020640     -0.008351
Li	      4.16115      6.42193      6.32153        -0.037506     -0.012068     -0.011051
Li	      4.06835      4.43654      8.34881        -0.016904     -0.000253     -0.016725
Li	      6.15402      6.51976      8.40620        -0.042921      0.012252     -0.023186
Sc	      2.15467      8.66041      6.27445        -0.024244      0.026177      0.000557
Sc	      4.12549      6.41890      2.16582         0.044251     -0.009771      0.048138
Ti	      8.30621      6.44695      6.20150        -0.050911      0.070573     -0.059189
Ti	      6.20375      4.46438     10.32175        -0.039606      0.216567     -0.202356
Mn	      6.32790     10.73191      8.42659         0.041791     -0.015979     -0.004405
Mn	      6.20186      8.61610      6.30520         0.037800     -0.023558     -0.008898
Co	      6.26560      6.46013      4.16847        -0.018311      0.028124      0.011264
Cu	      0.03792      6.47014      6.29443        -0.056100      0.033856     -0.044804
Cu	      6.17286      4.39826      6.18814        -0.006745     -0.017412      0.207379
O	      2.09723      2.11743      2.15633        -0.049023     -0.054409      0.114689
O	      4.32925      4.36411      2.04221         0.067908     -0.001441      0.129930
O	      4.06439      2.14991      4.26933        -0.129903      0.020615      0.186025
O	      6.23257      4.51848      4.18825        -0.003685      0.131183     -0.179943
O	      6.18315      2.41228      6.21456        -0.016293     -0.023215     -0.010285
O	      8.51174      4.40401      6.25576        -0.060013      0.005747     -0.002732
O	      1.99782      4.15261      4.29760        -0.079824     -0.088973     -0.051217
O	      4.28953      6.56724      4.17735         0.090582      0.064134     -0.046111
O	      3.93521      4.12910      6.26574         0.033630     -0.065470     -0.026224
O	      6.30163      6.35902      6.12760         0.098717      0.067554     -0.148540
O	      6.24750      4.31647      8.42823        -0.027892     -0.027600      0.257531
O	      8.34192      6.41111      8.16200         0.054791      0.003468     -0.089433
O	      1.99996      6.55501      6.26927         0.160953      0.035501      0.081762
O	      4.22156      8.50939      6.17555        -0.104451     -0.066002     -0.090695
O	      4.01099      6.46028      8.35412        -0.105655     -0.026436      0.012531
O	      6.21173      8.72003      8.26469         0.004854      0.044317      0.049852
O	      6.28042      6.34905     10.44812         0.008308     -0.220830     -0.125521
O	      8.46656      8.61558     10.47789         0.164368      0.037446      0.016475
