# total energy = -237.96395423 eV
 
CRYSTAL
PRIMVEC
0.003696 6.252421 6.426899 
6.355011 -0.010994 6.442499 
4.216126 4.157291 0.012954 
PRIMCOORD
36 1
Li	      6.28976      4.19499      2.30551         0.019794     -0.020651     -0.010267
Li	      8.26503      4.22610      4.37508         0.198839     -0.024259     -0.009050
Li	      6.25221      2.25338      4.38695         0.029926     -0.171753      0.053723
Li	      0.12659      2.09499      2.14115         0.005107     -0.076561      0.038312
Li	      8.37783      4.10435      8.50611         0.063438      0.032930      0.023840
Li	      6.35974      6.09399      4.34855        -0.044078      0.214063     -0.023497
Li	      4.44198      4.10020      4.30400        -0.164954      0.045669      0.014703
Li	      4.16170      2.07047      6.28367         0.027408      0.045546     -0.042212
Li	      6.35722      6.23692      8.50517         0.002374      0.082386      0.028908
Sc	     10.45307      4.25227      6.51922        -0.001920     -0.299009     -0.001474
Sc	      4.25890      4.24866      8.51897        -0.283940      0.005176      0.002600
Ti	      4.12367      2.08153      2.34350        -0.136253     -0.029079     -0.031622
Ti	      8.49739      6.17891     10.60890         0.011825     -0.069633     -0.261170
Mn	      6.37528      4.13991     10.66807         0.026129     -0.034523      0.204512
Mn	      6.35498      8.25716      6.44735         0.011361      0.209945     -0.102512
Co	      6.38626      4.15812      6.42623         0.218926     -0.046750     -1.140896
Ni	      2.07508      2.08697      0.06282         0.112236     -0.022865     -0.066398
Ni	      4.25166      6.26174      6.43934        -0.045054     -0.072803      0.004506
O	      2.24118      2.05042      2.13688         0.176251      0.012604      0.151264
O	      4.24583      4.02416      2.10775         0.018365     -0.148922      0.103116
O	      4.27499      2.06500      4.14143        -0.023597      0.007565     -0.080102
O	      6.35556      4.15921      4.49305        -0.018481      0.000913      0.677073
O	      6.40435      2.07779      6.45467        -0.050642      0.329068      0.005170
O	      8.40337      4.15695      6.43958         0.232484     -0.006829      0.113426
O	      2.01467      4.21414      4.41422         0.066248      0.135819     -0.049024
O	      4.12251      6.35879      4.32442        -0.064702     -0.078107     -0.105725
O	      4.34259      4.18719      6.44346        -0.253555     -0.015749      0.230818
O	      6.32586      6.32587      6.41872         0.061928     -0.156639      0.007744
O	      6.32726      4.16695      8.50284         0.005841      0.024000     -0.373940
O	      8.46713      6.25479      8.77686        -0.008960      0.001068      0.282148
O	      2.11081      6.16425      6.30532        -0.049915     -0.110356     -0.038540
O	      4.14013      8.32479      6.47219         0.064829      0.097687      0.098092
O	      4.22804      6.31022      8.53950         0.011803      0.119117      0.151751
O	      6.32482      8.31599      8.39973        -0.092533      0.012193      0.191818
O	      6.49300      6.08408     10.77691         0.045052      0.062165     -0.019782
O	      8.56851      8.20608     10.71249        -0.171576     -0.053427     -0.027310
