# total energy = -240.31934529 eV
 
CRYSTAL
PRIMVEC
-0.011322 6.356256 6.420049 
6.230900 -0.004896 6.413056 
4.161131 4.239762 -0.010273 
PRIMCOORD
36 1
Li	      4.12846      2.11743      2.16429         0.015797     -0.048606      0.023244
Li	      4.18124      6.37398     10.64726        -0.002550      0.047830     -0.027617
Li	     10.36715      6.33654      8.54599        -0.006903      0.019640      0.003408
Li	      4.13910      4.17156      4.32884         0.026469     -0.048396      0.118746
Li	      8.26819      6.38168      6.49082         0.026841      0.056165      0.005427
Li	      6.19041      4.25296     10.64980        -0.018807     -0.007434     -0.011848
Li	      2.13534      4.19840      6.44413         0.067181     -0.054318     -0.000305
Li	      8.30358      8.40795      8.55167         0.006385     -0.019943      0.017782
Li	      6.28118      6.40249      8.54421        -0.012523      0.075770      0.008683
Sc	      8.34015      6.29670     10.57065        -0.045305      0.014152      0.040678
Sc	      4.20413      6.40227      6.43693         0.076275     -0.078921     -0.010872
Ti	      6.24723     10.45148      8.62018         0.146997     -0.148181     -0.020771
Ti	      6.22596      4.25474      6.63202        -0.226079      0.100067      0.292380
Mn	      8.30086      2.13309      6.39829        -0.019855      0.009611     -0.125529
Mn	      2.13900      2.18928      4.20448        -0.034486     -0.005780      0.063643
Co	      6.10137      2.11967      4.27187         0.025021     -0.077015      0.021042
Co	     10.32173     10.53994     12.80233        -0.004045     -0.209943     -0.055424
Ni	      2.12797      4.26357      2.11886        -0.001754     -0.007687      0.053904
O	      2.06052      2.07562      1.96766        -0.031103     -0.066068      0.017883
O	      4.24300      4.26702      1.87813         0.062599      0.040118     -0.110243
O	      4.05562      2.15613      4.22693        -0.013685     -0.015128     -0.019543
O	      6.21097      4.36207      4.11566        -0.024530      0.059968     -0.079619
O	      6.29817      2.23497      6.35004         0.008914      0.123926     -0.018085
O	      8.25876      4.29737      6.44484         0.032286     -0.022148     -0.104098
O	      2.11142      4.16379      4.20355         0.006254      0.017550      0.065899
O	      4.23583      6.37973      4.32186         0.008090     -0.009552     -0.045194
O	      4.34650      4.27955      6.42851         0.130447     -0.007344     -0.005583
O	      6.23495      6.23988      6.43872         0.048296     -0.052206      0.022482
O	      6.25560      4.24299      8.44729        -0.055026     -0.008512     -0.265636
O	      8.30176      6.32436      8.62034         0.020916      0.082723     -0.024847
O	      2.07996      6.24476      6.48116        -0.053004     -0.031810      0.000779
O	      4.05133      8.49767      6.40374        -0.030726      0.063575     -0.017390
O	      3.98368      6.34199      8.50290        -0.152901     -0.004302      0.047444
O	      6.19867      8.58565      8.61681         0.030047      0.210908     -0.005292
O	      6.22958      6.36094     10.90799        -0.042116      0.035789      0.103468
O	      8.23573      8.40205     10.85317         0.036584     -0.034498      0.041005
