# total energy = -98.31667955 eV
 
CRYSTAL
PRIMVEC
-0.000048 2.032301 2.032329 
18.827462 -0.000063 -0.000572 
-0.000056 2.032360 -2.032388 
PRIMCOORD
16 1
Li	      0.30612      0.00236     -0.00068         0.050986      0.001820     -0.000665
Li	      2.03964      2.03463     -0.00063        -0.045062      0.000791     -0.000214
Li	      6.59517      2.03400      0.00040         0.033694     -0.000342     -0.000168
Li	     14.58140      0.00149     -0.00008        -0.042274      0.000143     -0.000372
Ti	      9.15030      0.00116      0.00037        -0.892022     -0.000242     -0.000554
Ti	     12.02606      2.03326      0.00005         0.918364      0.001192      0.000660
Ni	      4.27713      0.00190     -0.00026         0.124221      0.000889     -0.000337
Ni	     16.89750      2.03443     -0.00108        -0.122688     -0.001717      0.000454
O	     13.77817      2.03357     -0.00001        -0.871176     -0.000162     -0.000018
O	     16.44652      0.00200     -0.00102        -0.034481      0.000705      0.000002
O	      9.58604      2.03349      0.00030        -0.017874     -0.000098      0.000250
O	     11.59158      0.00102      0.00016         0.002184      0.000063      0.000117
O	      4.72879      2.03438     -0.00033         0.034265     -0.000182      0.000154
O	      7.39874      0.00125      0.00031         0.861219     -0.000739      0.000019
O	     18.82370      2.03465     -0.00131         0.194406     -0.001757     -0.000052
O	      2.35093      0.00232     -0.00063        -0.193762     -0.000364      0.000724
