# total energy = -234.40111994 eV
 
CRYSTAL
PRIMVEC
-0.027718 6.428335 6.455162 
6.129809 -0.007645 6.436036 
4.073750 4.261100 0.006780 
PRIMCOORD
36 1
Li	      2.05660      6.47787      8.52107        -0.020230      0.007492     -0.031618
Li	      4.08587      8.52184      8.64450         0.036516      0.006263      0.031731
Li	      6.06899      2.17738      4.23650         0.026524      0.019373     -0.014636
Li	      0.05978      2.16296      2.13722        -0.001866     -0.022308      0.002391
Li	      6.10146      6.41033      4.50243         0.009440      0.058420      0.075374
Li	      6.11291      4.37961      6.41894        -0.011666     -0.028053      0.007114
Li	      6.03543      8.33582      6.51672        -0.019794     -0.008720      0.036687
Li	      4.22211      6.41344      6.47114        -0.030421     -0.040447      0.004318
Li	      6.04126      6.42802      8.53261         0.025662     -0.007857      0.012428
Sc	      8.10820      6.34465      6.49121         0.040433     -0.019571     -0.054590
Sc	      8.09386      6.36043     10.71234        -0.119655      0.238538     -0.044678
Ti	      4.22169      4.29576      4.19158         0.129279     -0.123162     -0.158496
Ti	      3.91798      4.38138      8.48812        -0.359049      0.131195     -0.111576
Mn	      8.13406      2.13426      6.42953        -0.174852     -0.141976     -0.147853
Mn	      4.06289      8.51946      4.31039         0.200604     -0.689960      0.115290
Cu	      4.07939      4.26043      0.02636         0.081959      0.086112      0.108736
Cu	      4.02715      6.47079     10.64499        -0.166577      0.080122     -0.029592
Cu	      1.99260      4.12009      2.26743         0.144195      0.095476      0.019482
O	      2.08657      2.18827      1.83817         0.019397     -0.128382      0.012687
O	      3.96235      4.28133      2.33789         0.038361      0.053819      0.358099
O	      4.09674      2.38546      4.38413        -0.081767      0.236129      0.086481
O	      6.06423      4.34386      4.25273        -0.048896      0.059502      0.015233
O	      6.22079      2.05513      6.41912         0.115248      0.113818     -0.033633
O	      8.19690      4.15656      6.26857        -0.062753      0.000789     -0.076984
O	      2.02923      4.31977      4.44567         0.707928     -0.007830      0.097934
O	      4.05973      6.34462      4.37274        -0.112009     -0.696140      0.013453
O	      4.11798      4.23710      6.58155        -0.036252      0.025045      0.186701
O	      6.16894      6.35447      6.50516        -0.004538     -0.021378      0.024873
O	      6.17446      4.19509      8.82694        -0.212005      0.017775     -0.203315
O	      8.17909      6.56130      8.61298         0.011062      0.052696     -0.000874
O	      1.93680      6.65539      6.43260         0.095903      0.033223      0.023737
O	      3.92948      8.60919      6.27758         0.046561     -0.042472      0.012866
O	      4.05527      6.26841      8.66457        -0.014504     -0.116820     -0.175858
O	      6.17992      8.57518      8.57521         0.370477     -0.007801      0.005976
O	      6.01131      6.23295     10.63976         0.264607      1.154904     -0.175816
O	      8.18017      8.45179     10.75248        -0.887321     -0.367813      0.007930
