# total energy = -243.99772313 eV
 
CRYSTAL
PRIMVEC
0.013230 6.120431 6.392092 
6.486687 -0.013397 6.418421 
4.327882 4.102660 -0.011922 
PRIMCOORD
36 1
Li	      0.15029      6.10305      6.48343         0.059187     -0.049375     -0.000147
Li	      2.16954      6.11129      8.35950         0.043773      0.012280      0.067364
Li	      4.35892      6.07393     10.59554        -0.014691      0.029210     -0.033728
Li	      2.23545      4.10223      2.13991         0.006270     -0.031750      0.009680
Li	      4.31929      4.14867      4.26556         0.122440     -0.049230      0.034761
Li	      2.24175      6.09826      4.40400        -0.039488      0.011449     -0.043695
Li	      2.18218      4.19446      6.45762        -0.015305     -0.011373     -0.028584
Li	      4.18576      6.11876      6.42166         0.037775     -0.009465      0.053232
Li	      6.43540      6.15413      8.49639        -0.036251     -0.011998     -0.026946
Sc	      6.49235      8.14015     10.61372        -0.008694      0.153882     -0.020353
Sc	      2.21345      1.98416      4.20228        -0.011854     -0.253881     -0.020753
Ti	      8.57242      6.04543      6.47124        -0.192829      0.001886      0.122089
Ti	      0.11132      4.17820      4.34535         0.202684      0.382001     -0.066594
Mn	      2.20402      8.16142      6.41416         0.012455     -0.072059     -0.001057
Mn	      4.27882      6.02609      2.16732         0.066485      0.100415     -0.003541
Fe	      4.27940      4.21589      8.50864         0.108640     -0.095807     -0.019089
Co	      4.38873      8.18517      8.44698         0.110734     -0.099951     -0.014161
Co	      6.46423      4.08284      6.43706         0.107080     -0.090213     -0.048620
O	      2.20597      2.05332      2.09052         0.009738      0.017106     -0.117189
O	      4.31130      4.12695      2.17722        -0.003767      0.032346     -0.059760
O	      4.34663      2.03021      4.39843        -0.009408     -0.013818      0.028944
O	      6.47692      4.06619      4.36889        -0.017899      0.073556     -0.202559
O	      6.40165      1.96541      6.41624        -0.141466      0.573969      0.192353
O	      8.58047      4.06167      6.44583        -0.310896      0.113490      0.018264
O	      1.98692      4.09161      4.26433        -0.216079      0.008245      0.005299
O	      4.40876      6.20453      4.19833        -0.015994      0.058127     -0.041832
O	      4.36810      3.97021      6.50424         0.208553     -0.055545     -0.135585
O	      6.68389      6.16092      6.32832         0.075002     -0.538631      0.127636
O	      6.34932      3.91207      8.63656         0.003192     -0.075759      0.205615
O	      8.66593      6.13002      8.36928        -0.083346      0.057499     -0.129786
O	      2.18462      6.30100      6.37420        -0.013255      0.096327     -0.004531
O	      4.31664      8.21661      6.24440         0.007602     -0.019665     -0.092704
O	      4.39204      6.12136      8.48161        -0.052977      0.146799      0.003521
O	      6.56223      8.19859      8.56170        -0.061212     -0.028844      0.002734
O	      6.46983      6.03031     10.59544         0.035070     -0.346670      0.111605
O	      8.66576      8.15423     10.63954         0.028729     -0.014554      0.128115
