# total energy = -238.75571189 eV
 
CRYSTAL
PRIMVEC
0.013339 6.556346 6.345569 
6.160663 0.011223 6.348674 
4.112813 4.379042 0.001382 
PRIMCOORD
36 1
Li	      4.16848     10.82538      6.36745         0.005446     -0.063156      0.026712
Li	      6.10492     10.86084      8.43434         0.005668      0.018097     -0.001214
Li	      4.27185      8.69539      8.33287        -0.047959     -0.028319     -0.013444
Li	      4.12977      4.40932      4.36375         0.013236      0.047328     -0.032291
Li	      4.05771      2.42188      6.33835         0.036263     -0.012190      0.031645
Li	      4.08298      8.74762      4.34164        -0.002269     -0.073398      0.014827
Li	      6.17300      8.68405      6.51435        -0.058774     -0.027834      0.025100
Li	      4.13710      6.51267      6.50750        -0.024329      0.016591      0.030986
Li	      6.15657      6.75082      8.31390         0.060912      0.030897      0.005006
Sc	      8.21472      4.39777      8.31967         0.047034     -0.029363     -0.013602
Sc	      6.11749      6.58073      4.39826        -0.015199      0.130557     -0.081084
Ti	      4.22868      6.63704     10.44825         0.053864      0.033925     -0.518725
Ti	      2.08572      6.33624      4.35214         0.047874     -0.195335      0.178328
Mn	      6.16990      2.25699      4.20020        -0.059413     -0.012303      0.000497
Mn	     10.23185      6.53321      8.38292         0.010451     -0.034966      0.033533
Fe	      2.20886      8.70375      6.33308        -0.176672     -0.057715      0.038329
Cu	      4.08794      4.41020      8.35355         0.009945      0.085050      0.038869
Ni	      6.08711      4.40428      6.32287         0.124508      0.017143      0.009555
O	      1.93605      2.26456      2.09275         0.065017     -0.004659     -0.002936
O	      4.08416      4.58433      2.06134         0.053320      0.001281     -0.019141
O	      4.16853      2.05361      4.24219        -0.064087     -0.041076      0.009403
O	      6.30265      4.49813      4.24348         0.011752     -0.027764     -0.072867
O	      6.22641      2.26194      6.18072        -0.014081     -0.011201     -0.103661
O	      8.21719      4.25257      6.25202         0.053110      0.024108     -0.028913
O	      2.04034      4.43536      4.19551         0.017934      0.125984      0.086906
O	      4.00683      6.53858      4.24889        -0.151676      0.004899      0.032244
O	      4.08374      4.37581      6.40418        -0.116903      0.051398     -0.119995
O	      6.18067      6.51846      6.33971         0.003441      0.069617      0.056708
O	      6.09180      4.13925      8.39808        -0.063951     -0.055846      0.094340
O	      8.26329      6.43690      8.61780        -0.087184     -0.034938      0.069311
O	      2.04362      6.66482      6.18223         0.004881     -0.087538     -0.270796
O	      4.05618      8.73921      6.38724         0.245859      0.013035     -0.012385
O	      4.15138      6.63737      8.64153         0.070237      0.070076      0.414387
O	      6.23982      8.81260      8.61128        -0.079077      0.012316      0.065059
O	      6.20517      6.52489     10.56236        -0.041156      0.012945     -0.008832
O	      8.18544      8.80250     10.57940         0.061978      0.032354      0.038143
