# total energy = -238.78846305 eV
 
CRYSTAL
PRIMVEC
0.033610 6.058682 6.731043 
6.249838 0.008558 6.757422 
4.175229 4.066223 -0.003917 
PRIMCOORD
36 1
Li	      0.13176      6.02710      6.78608        -0.067905      0.022551      0.001421
Li	      2.01446      0.03205      2.16418        -0.009910     -0.041946      0.011130
Li	      4.24207      6.07819     11.22308        -0.082571     -0.000378      0.058133
Li	      2.15003      4.04050      2.23651        -0.060273      0.009097     -0.035032
Li	      4.08296      4.12111      4.22715         0.008440     -0.005519      0.032541
Li	      6.29767      4.04635      6.76022         0.003103     -0.032573     -0.039316
Li	      2.13622      6.08779      4.53448        -0.023605      0.002394      0.046702
Li	      2.08606      4.10436      6.69372        -0.010412      0.002924     -0.014858
Li	      6.26932      6.04589      9.01177        -0.034765      0.088140     -0.004754
Sc	      8.28832      5.98981      6.79603         0.168388     -0.043696     -0.053306
Sc	      4.22056      6.03590      6.74032        -0.017655     -0.049427     -0.028868
Ti	      6.22858      2.20711      4.49337        -0.119086      0.296108      0.090438
Ti	      6.42431      4.16184     11.19806         0.284856      0.155895     -0.018929
Mn	      4.15814      2.06959      2.30715        -0.172867      0.038529      0.046527
Mn	      8.32974      8.12273      9.02398        -0.066989      0.092219     -0.064999
Fe	      2.05153      2.05912      0.10908        -0.175626      0.013847     -0.083359
Cu	      4.20433      6.00744      2.33909         0.197664     -0.152192     -0.127861
Cu	      6.26338      6.02661      4.53604         0.168912     -0.032959      0.026406
O	      2.14216      2.02788      2.09370        -0.117052      0.003764     -0.031758
O	      4.16964      4.02530      2.22570        -0.071031      0.147580      0.037267
O	      4.22383      2.04901      4.56843         0.251844      0.005030      0.014600
O	      6.24352      4.04652      4.49382         0.011235     -0.409946      0.007635
O	      6.29035      2.01760      6.42983         0.012364      0.004937     -0.235404
O	      8.30377      3.98456      6.73931        -0.027240      0.145292     -0.011820
O	      2.02929      3.96184      4.51748        -0.200153      0.255210      0.049959
O	      4.25161      6.10553      4.61917        -0.267512      0.032872      0.151600
O	      4.17443      4.02034      7.09717         0.012599      0.011275     -0.074260
O	      6.28633      6.07454      6.83084         0.008052      0.038908      0.145823
O	      6.28576      3.92769      9.26544         0.048658      0.126844      0.132580
O	      8.46264      6.13851      8.91953        -0.056665     -0.046798      0.032728
O	      2.14771      6.16681      6.68932         0.035345     -0.106845     -0.063593
O	      4.11235      8.13015      6.51244         0.085723      0.009912     -0.113512
O	      4.19785      6.10938      8.90368        -0.031182     -0.226419     -0.025921
O	      6.15211      8.10820      9.20908         0.203285     -0.063894      0.076884
O	      6.30563      6.01571     11.16835         0.021326     -0.275685     -0.053872
O	      8.27688      8.12034     11.01439         0.090705     -0.015054      0.119048
