# total energy = -238.88728412 eV
 
CRYSTAL
PRIMVEC
0.015367 6.306551 6.313054 
6.453678 -0.009272 6.337144 
4.318011 4.235575 -0.021045 
PRIMCOORD
36 1
Li	      4.31693      4.27515      0.14843        -0.028403     -0.021685     -0.090260
Li	      2.15811      2.13427      0.20214         0.023279     -0.007761     -0.082070
Li	      6.28121      4.38098      2.22798        -0.019423     -0.000530     -0.050794
Li	      4.02907      2.29277      2.20101        -0.012820     -0.078327      0.001082
Li	      8.38392      4.25028      4.17993         0.004343      0.002884     -0.011009
Li	      2.26955      1.99916      4.06390        -0.052726     -0.006728      0.039769
Li	      4.45331      4.13180      3.97774        -0.030777     -0.009954      0.069473
Li	      6.51750      4.10808      6.17632         0.011469     -0.004699      0.023644
Li	      6.53410      6.32646      8.43649        -0.008242     -0.006853      0.007698
Sc	      6.44386      8.48458      6.39518        -0.020373      0.119201      0.042808
Sc	      4.36958      6.32904      6.28496        -0.021106      0.013361      0.066203
Ti	      8.58826      6.13798      6.22016         0.085313     -0.398659     -0.378155
Ti	      4.42048      4.30517      8.45290         0.050381      0.271374      0.025172
Mn	      6.42557      2.14618      4.20492        -0.077603     -0.022375      0.028295
Mn	      8.65183      6.33648     10.50593        -0.117357     -0.008794      0.092223
Fe	      6.48931      4.30525     10.54276        -0.010702      0.040994      0.062368
Ni	      0.07249      2.00852      2.07266         0.041383      0.047044     -0.066961
Ni	      2.22094      4.13650      2.10672        -0.047467      0.026834     -0.017330
O	      2.07545      2.13990      2.13059         0.093999     -0.146307     -0.034950
O	      4.23955      4.23993      2.08048         0.111871     -0.121088      0.012548
O	      4.25500      2.03006      4.35745         0.006292      0.008513      0.274643
O	      6.42932      4.01712      4.20614        -0.040567      0.056253     -0.014065
O	      6.26402      2.09100      6.21971        -0.122438     -0.023310      0.008217
O	      8.55041      4.31416      6.36858        -0.031506      0.371098     -0.161670
O	      2.02562      4.26931      4.22577         0.111766      0.019237      0.069300
O	      4.14732      6.38925      4.18519         0.067321      0.021604      0.086317
O	      4.26453      4.18447      6.47180         0.038191     -0.006346      0.054960
O	      6.53961      6.38771      6.29264         0.050360     -0.013188      0.020508
O	      6.39120      4.16755      8.52668        -0.150502      0.084655     -0.062466
O	      8.69296      6.39093      8.33083        -0.064812      0.091175     -0.082869
O	      2.29179      6.29414      6.24851         0.056074     -0.000244      0.075900
O	      4.39031      8.39776      6.20692         0.017776      0.016682      0.116249
O	      4.44002      6.16651      8.36199         0.031037     -0.319682      0.048893
O	      6.72033      8.40919      8.49921         0.060203     -0.012089     -0.073931
O	      6.71543      6.37014     10.50852         0.057774      0.034492     -0.012776
O	      8.76735      8.45097     10.41678        -0.062010     -0.016780     -0.086963
