# total energy = -242.83257234 eV
 
CRYSTAL
PRIMVEC
0.002927 6.291728 6.520732 
6.255107 0.006231 6.518736 
4.174037 4.196513 -0.000223 
PRIMCOORD
36 1
Li	      4.14854      4.13083      0.07124        -0.023247      0.035746      0.057316
Li	      8.36179      2.24493      6.63209         0.041255      0.025915      0.033164
Li	      2.10317      6.34196      8.61095        -0.029076     -0.025798      0.006820
Li	      8.31859      4.21258      4.45028        -0.032156      0.018791      0.025992
Li	      2.13475      4.06800      2.00825         0.021138     -0.036606      0.024598
Li	      2.06735      2.06191      4.22000         0.034250      0.012030     -0.006726
Li	      6.35631      4.13549      6.43381        -0.022281     -0.023347     -0.006652
Li	      8.35904      6.36592     10.90261         0.010333     -0.035172     -0.004958
Li	      6.21986      6.32633      8.72055        -0.009497      0.009613      0.014782
Sc	      4.13606      4.24562      4.25015        -0.007519     -0.102636     -0.233325
Sc	      8.26133      6.13559      6.58466         0.166755     -0.229085     -0.065472
Ti	      6.31391      2.14357      4.43499        -0.207755      0.217159      0.079504
Ti	      6.33218      4.37558     10.82457         0.323950      0.236376     -0.308499
Mn	      0.12885      2.06939      2.08835        -0.022519     -0.017561      0.068770
Mn	      6.21298      8.42357      6.53397        -0.047544      0.055137      0.750889
Fe	      4.12577      6.33664      6.55758         0.063981     -0.026248     -0.049078
Fe	      8.29988      8.43621      8.71355         0.173897      0.076299      0.085514
Cu	      4.08092      2.05981      2.19791         0.102583      0.023449      0.074814
O	      2.12083      2.06960      2.18687        -0.174014     -0.026567     -0.023752
O	      4.14490      4.15863      2.24953         0.007936      0.140672     -0.047377
O	      4.32694      2.11847      4.45651         0.062046     -0.002960      0.107112
O	      6.22120      4.03075      4.39002         0.018010     -0.216333     -0.014825
O	      6.27345      2.06011      6.33411         0.030136     -0.036851     -0.013774
O	      8.29004      4.20433      6.55188        -0.007422      0.203236     -0.015380
O	      2.00808      4.21260      4.47668        -0.362240      0.030688     -1.205635
O	      4.17995      6.33342      4.42250        -0.004485      0.028535      0.035122
O	      4.08493      4.24156      6.54146         0.371669     -0.045433      0.041488
O	      6.19454      6.43538      6.51651         0.038663      0.050046      0.024604
O	      6.21212      4.20824      8.91216        -0.030837      0.001256      0.179297
O	      8.42836      6.44983      8.60682         0.013677     -0.024287     -0.037885
O	      2.14805      6.12992      6.52712        -0.108123     -0.001752     -0.029743
O	      4.20662      8.34081      6.31911        -0.511405      0.088786     -0.226013
O	      4.17801      6.25919      8.55166         0.035147     -0.064770     -0.034224
O	      6.28940      8.37629      8.75104         0.042430     -0.070101      0.771160
O	      6.27079      6.25271     10.85846         0.012030     -0.250957     -0.010142
O	      8.31892      8.41953     10.77687         0.030234     -0.017271     -0.047486
