# total energy = -241.64812988 eV
 
CRYSTAL
PRIMVEC
0.036984 6.254245 6.205584 
6.702533 0.004928 6.235284 
4.457661 4.178686 0.013853 
PRIMCOORD
36 1
Li	     11.14188      4.18044      6.25526         0.053175      0.014575      0.008016
Li	      8.65355      4.22510      8.18412        -0.052459     -0.020176     -0.009047
Li	      8.70792      6.40065      6.34616         0.007603     -0.041602      0.043643
Li	      6.48954      4.27700      6.34448        -0.053442     -0.007166     -0.003823
Li	     11.13266      8.28319     10.35274         0.003664     -0.005409      0.051566
Li	      2.55272      4.06295      6.31681         0.011897      0.051872      0.024960
Li	      4.62259      6.11870      6.23964         0.024684      0.041388      0.018050
Li	      4.60254      4.16576      8.09650         0.008645      0.011640      0.016489
Li	      6.75976      6.15149      8.18693         0.000584      0.012182     -0.008397
Sc	      4.60254      8.40005      8.16266         0.023364     -0.019045      0.015623
Sc	      6.74144      2.19337      4.21633        -0.078755      0.013495     -0.082952
Ti	      4.72968      6.23480     10.43292         0.102891      0.104505     -0.036556
Ti	      2.31109      6.02104      4.10673         0.066628     -0.207838     -0.039915
Mn	      6.62611      2.14214      8.23336         0.028380     -0.030451      0.010236
Mn	      6.71870      6.29826      4.25841        -0.003016      0.037580     -0.026884
Fe	      2.28286      2.07899      0.07663        -0.086807      0.062486     -0.067629
Fe	      2.35520      6.27784      8.16966         0.022989     -0.104100      0.062790
Ni	      4.50160      4.18366      4.24151         0.059767     -0.061780     -0.078339
O	      2.35033      2.15925      2.18685        -0.003339      0.150945     -0.034698
O	      4.64774      4.28024      2.14800        -0.112895      0.034343     -0.063546
O	      4.59266      2.00449      4.16908        -0.004953     -0.112161      0.031026
O	      6.79400      4.29713      4.19004         0.045915      0.007343      0.095681
O	      6.91568      2.08316      6.31137        -0.006865      0.018795     -0.018467
O	      8.98127      4.13671      6.10802         0.045384     -0.005517     -0.171386
O	      2.26874      4.15128      4.16340        -0.024301      0.244593      0.002233
O	      4.24502      6.23269      4.03387        -0.121075      0.074516      0.016661
O	      4.48807      4.15972      6.16429         0.027969     -0.018861      0.225331
O	      6.66670      6.29304      6.09553         0.003304     -0.001207     -0.029431
O	      6.67357      4.00982      8.30891        -0.016026      0.034265      0.005236
O	      8.83563      6.22350      8.48937         0.016582     -0.029621      0.167544
O	      2.19199      6.32456      6.02676        -0.010781     -0.016193     -0.251463
O	      4.25935      8.33889      6.22017         0.032505     -0.042340     -0.027114
O	      4.43031      6.30264      8.44277         0.126895     -0.023295      0.129118
O	      6.63891      8.37800      8.34550        -0.052278     -0.159496      0.016701
O	      6.63765      6.29527     10.36869        -0.154358     -0.053674      0.010311
O	      8.87288      8.43122     10.41984         0.068526      0.045411     -0.001567
