# total energy = -246.66411812 eV
 
CRYSTAL
PRIMVEC
0.018361 6.394544 6.311556 
6.379679 0.011399 6.318343 
4.261942 4.276176 -0.001120 
PRIMCOORD
36 1
Li	      4.29245     10.65785      6.33068         0.028065     -0.032308     -0.004100
Li	      4.36051      8.44132      8.37282         0.027990     -0.023162      0.017348
Li	      6.41118      8.51095     10.45363         0.039060     -0.012121     -0.009775
Li	      6.37205      2.23133      8.38757         0.005209      0.049649      0.007833
Li	      8.40440      4.33745      8.38774        -0.046643      0.031513      0.027830
Li	      6.35727      4.32299     10.45669         0.003123      0.026723     -0.071133
Li	      4.27680      6.46273      6.42494         0.021562      0.010827     -0.023436
Li	      4.29109      4.33870      8.41250        -0.008054     -0.001734     -0.001669
Li	      6.33325      6.39040      8.36698        -0.028180     -0.001331      0.032520
Sc	      2.27335      8.56648      6.38801         0.053955      0.079519     -0.072510
Sc	      2.05331      2.19754      4.16628        -0.031884      0.023941      0.076073
Ti	      4.25115      4.27237      4.10963        -0.043788      0.015308     -0.172771
Ti	      8.40809      6.49536     10.36896        -0.299347      0.192036     -0.168597
Mn	      4.41964      6.39335     10.44129         0.062704     -0.018764      0.029171
Mn	      6.34602      4.29449      6.45047        -0.014689      0.034610     -0.018760
Fe	      2.21537      6.23954      8.28921        -0.042470      0.044466      0.160424
Fe	      8.58433      6.40457      6.43073        -0.028865     -0.043922      0.023522
Fe	      6.28724      8.58068      6.42075         0.027463     -0.199999     -0.260912
O	      2.11847      2.02062      2.13567        -0.013042     -0.052543     -0.009359
O	      4.39761      4.23117      2.27800        -0.042712      0.020499      0.214768
O	      4.18631      2.24845      4.31027        -0.060033      0.092215     -0.007839
O	      6.25665      4.34239      4.36152        -0.091496      0.009808     -0.126887
O	      6.33578      2.28029      6.33856         0.047162      0.009775      0.023868
O	      8.59862      4.33598      6.28538         0.002027      0.013216      0.077424
O	      2.23619      4.31353      4.15875         0.081494      0.019915     -0.066508
O	      4.21274      6.24696      4.24326        -0.018081     -0.121099     -0.047650
O	      4.14122      4.13815      6.22994         0.144913      0.017940     -0.046831
O	      6.47749      6.32344      6.31644         0.034084     -0.135869     -0.035660
O	      6.38992      4.28807      8.29637         0.018927     -0.024863      0.072545
O	      8.55771      6.39726      8.48289         0.004979      0.008742      0.228139
O	      2.12247      6.45687      6.24512        -0.000068      0.106340      0.000626
O	      4.28370      8.54271      6.29615        -0.220652     -0.013188     -0.003947
O	      4.14800      6.37660      8.42564         0.009288      0.031599     -0.045078
O	      6.38314      8.60567      8.46787         0.032821      0.033749      0.200785
O	      6.56995      6.38471     10.48131         0.361603      0.034882      0.006566
O	      8.56804      8.38794     10.56069        -0.016422     -0.226372     -0.006019
