# total energy = -235.34967551 eV
 
CRYSTAL
PRIMVEC
0.066014 6.267059 6.406268 
6.327107 0.019834 6.452526 
4.225676 4.216729 0.005640 
PRIMCOORD
36 1
Li	      8.45031      8.44152     12.68843         0.008028      0.035267     -0.045614
Li	      6.25570      4.31224      2.21638        -0.008127     -0.015013      0.029638
Li	      8.36822      4.16892      4.48389         0.029362     -0.018319      0.044511
Li	      0.09684      2.04018      2.15073         0.035855      0.000964     -0.001759
Li	      2.12228      4.18685      2.14752        -0.015038     -0.011586     -0.007697
Li	      4.30506      4.27198      4.26280        -0.030311     -0.014361      0.004496
Li	      6.39384      4.16991      6.36831         0.018315     -0.016279      0.036402
Li	      4.22979      8.28626      4.26324        -0.002756      0.000811     -0.069101
Li	      8.54771      6.40869     10.74272         0.020948      0.036184      0.019226
Sc	      2.16027      4.22422      6.28412         0.020150      0.017312     -0.042263
Sc	      8.50646      8.43601      8.64804         0.045050     -0.016299      0.019893
Ti	      4.13607      2.22473      2.24942        -0.175929      0.289127      0.036344
Ti	      6.43823      6.19610      8.76906         0.147743     -0.173710      0.431122
Mn	      6.29794      0.07831      6.43976         0.029815     -0.024264      0.019988
Mn	      6.30218      6.22850      4.30363        -0.007936     -0.022199     -0.036070
Ni	      6.36737      2.23194      4.35897        -0.034441     -0.036602      0.007386
Ni	      4.21648      6.30115      6.35975        -0.032586      0.030945     -0.009891
Ni	      4.27462      2.06666      6.40711        -0.045860      0.053528     -0.006138
O	      2.22540      2.05542      2.35199         0.127862      0.027277      0.076858
O	      4.25741      4.05685      2.18236        -0.025176     -0.296151      0.040807
O	      4.17389      2.07628      4.20739        -0.080875      0.014155     -0.189713
O	      6.36245      4.30799      4.30534        -0.017304      0.108843     -0.018548
O	      6.30366      2.03583      6.39195         0.127728      0.016834      0.082289
O	      8.63145      4.26834      6.45613        -0.063304     -0.155619      0.026123
O	      2.10553      3.97455      4.30587        -0.000655     -0.026794     -0.004408
O	      4.40564      6.27881      4.32216         0.021120     -0.009062     -0.104062
O	      4.19364      4.20497      6.50039        -0.039195     -0.014973     -0.034791
O	      6.36938      6.28833      6.29544        -0.036811      0.030151     -0.006091
O	      6.34015      4.33554      8.57206        -0.003996      0.218654      0.042095
O	      8.33909      6.34906      8.52040        -0.168066     -0.007980      0.112068
O	      2.07032      6.26907      6.36481        -0.038463     -0.007472      0.010499
O	      4.26511      8.44454      6.59480         0.013865      0.060595      0.038472
O	      4.43339      6.35758      8.43096         0.057104      0.029100      0.097076
O	      6.32015      8.30451      8.57056        -0.025187     -0.011604     -0.091135
O	      6.40301      6.33230     10.58723         0.009572     -0.095176     -0.444092
O	      8.45010      8.42532     10.64638         0.139498      0.003718     -0.063923
