# total energy = -239.77540303 eV
 
CRYSTAL
PRIMVEC
-0.013378 6.297303 6.314258 
6.667868 -0.022144 6.322914 
4.410566 4.170019 0.018712 
PRIMCOORD
36 1
Li	      4.23361      2.19963      2.08322         0.014767     -0.052174      0.015013
Li	      4.54316      6.20663      2.30642         0.021444      0.045920     -0.079347
Li	      2.36569      4.02990      2.28663         0.049551     -0.019729     -0.045383
Li	      6.34762      6.28842      4.08948        -0.016581      0.009980      0.030721
Li	      4.26904      4.38956      4.09375        -0.012119     -0.047525      0.007653
Li	      6.60073      4.23125      6.36245        -0.015622     -0.029037      0.017855
Li	      4.50135      8.15288      4.25729         0.073762      0.006650     -0.001832
Li	      2.54396      6.20393      4.12507         0.035042     -0.013978     -0.028867
Li	      4.38150      6.28088      6.10667         0.004631      0.031750      0.049632
Sc	      6.66136      2.15985      4.26808        -0.067273      0.025139      0.163161
Sc	      2.19821      4.21989      6.11617        -0.005639     -0.037430     -0.033691
Ti	      8.79267      6.17751      6.29220        -0.076069     -0.076731     -0.087250
Ti	      6.62950      6.08389      8.51949        -0.153783     -0.491282     -0.137110
Mn	      4.36525      4.14092      0.09578        -0.018736     -0.056942     -0.049409
Mn	      2.18450      0.07487      2.08339        -0.041898      0.067485     -0.046450
Mn	      4.47047      4.17588      8.41838         0.117566      0.106043     -0.046569
Cu	      2.27414      8.40712      6.35266        -0.036452      0.079103     -0.042731
Cu	      8.79497      4.17291      4.26237        -0.045246      0.094172      0.010336
O	      2.26563      1.96969      1.98985        -0.004228      0.002745      0.094249
O	      4.45036      4.14551      2.01515         0.043348      0.009571      0.042831
O	      4.50360      1.99121      4.36021         0.051409      0.092365      0.027961
O	      6.75328      4.20643      4.05016        -0.079579      0.031787      0.026160
O	      6.39494      1.95146      6.34424        -0.185696      0.034443     -0.065527
O	      8.77795      4.24249      6.51846        -0.040361      0.093222      0.128582
O	      2.23311      4.18579      4.20754        -0.005962      0.007597     -0.024645
O	      4.43376      6.27350      4.22675        -0.018976     -0.032029     -0.037441
O	      4.39980      3.96684      6.32750        -0.031077     -0.049436     -0.000844
O	      6.79552      6.26774      6.51089         0.076296      0.021161      0.070488
O	      6.51250      4.25341      8.47209        -0.044260      0.410689      0.016734
O	      8.63664      6.41890      8.43859        -0.090342     -0.038453      0.081133
O	      2.22081      6.32302      6.42561         0.074415     -0.034763     -0.002176
O	      4.52855      8.54718      6.34238         0.155233     -0.038167     -0.038461
O	      4.67722      6.11134      8.27069         0.132966      0.010242     -0.048579
O	      6.80060      8.45477      8.45817         0.009111     -0.032585      0.083535
O	      6.52635      6.34438     10.47577         0.127421     -0.007547      0.001986
O	      8.74166      8.49048     10.68319         0.002936     -0.122258     -0.051717
