# total energy = -247.35514841 eV
 
CRYSTAL
PRIMVEC
-0.003401 6.340969 6.421998 
6.344260 0.005853 6.412805 
4.228682 4.220492 0.004569 
PRIMCOORD
36 1
Li	     10.53379      4.29884      6.45467         0.010123     -0.018316      0.014432
Li	      8.35188      2.18493      6.44009        -0.006988      0.058183     -0.004695
Li	      4.20870      2.13759      2.14773         0.045768      0.011312     -0.004722
Li	      8.34890      4.30548      4.33622         0.029020     -0.035847      0.030364
Li	      6.41020      2.11523      8.47051        -0.026332     -0.001163     -0.045309
Li	      4.26300      4.20549      4.21986        -0.048180     -0.051185     -0.021170
Li	      6.42915      4.16303      6.46799         0.036477     -0.032510      0.046788
Li	      4.22678      4.29080      8.54568        -0.038489     -0.037498      0.022078
Li	      6.33384      6.29478      8.58172         0.040935     -0.003237     -0.010174
Sc	      4.28696      2.14664      6.42937        -0.012631      0.008108      0.025587
Sc	      6.31802      4.28143     10.64249         0.092037      0.065194     -0.028348
Ti	      8.48152      6.36058     10.61232         0.062404      0.033986     -0.346831
Ti	      4.25164      6.30038      6.55665         0.060505      0.073029      0.163688
Mn	      6.21831      4.26155      2.11538        -0.103461     -0.100534      0.056690
Mn	      6.31174      2.19429      4.26397        -0.044246     -0.018426     -0.142148
Mn	      6.36608      6.25256      4.27454        -0.042256      0.009059      0.007106
Fe	      2.16541      4.11147      2.03236         0.149532      0.045479      0.166447
Co	      6.32431      8.45659      6.55843         0.013526     -0.136347     -0.471533
O	      2.08712      2.07363      2.12462         0.020902     -0.083834     -0.079795
O	      4.26200      4.23721      2.09834        -0.050366     -0.002237     -0.010541
O	      4.19051      2.08473      4.39433         0.037039     -0.001385      0.022303
O	      6.35708      4.18333      4.28336        -0.027444     -0.067322      0.017037
O	      6.31062      2.16062      6.22980         0.004932     -0.067731      0.065806
O	      8.49928      4.27774      6.53683        -0.025012      0.003691     -0.221531
O	      2.12367      4.30160      4.23388        -0.048897      0.147435     -0.052490
O	      4.14119      6.34176      4.39420        -0.131636      0.032099      0.035094
O	      4.17117      4.30208      6.49663        -0.473201      0.111865      0.077640
O	      6.22680      6.32551      6.49196        -0.069974      0.502700      0.116929
O	      6.51447      4.19609      8.62651        -0.131185      0.044135     -0.073451
O	      8.52174      6.25736      8.65301        -0.020213      0.017560      0.151178
O	      2.22474      6.32344      6.24707        -0.032644     -0.474568      0.171707
O	      4.28604      8.27385      6.34760         0.450728     -0.009619      0.245435
O	      4.03867      6.34959      8.41258         0.068849      0.001580     -0.197585
O	      6.26700      8.61005      8.66240         0.068518      0.016031      0.184466
O	      6.50713      6.35679     10.66972         0.098734      0.066426      0.006840
O	      8.50534      8.29369     10.61779         0.043126     -0.106118      0.082709
