# total energy = -103.21331322 eV
 
CRYSTAL
PRIMVEC
2.102616 4.129311 2.044976 
4.207535 -2.056379 -2.064023 
0.001022 4.180919 -4.193117 
PRIMCOORD
16 1
Li	      6.15931      2.03314     -0.04010         0.022235     -0.001533     -0.003486
Li	      2.25645      2.11292      0.00073        -0.022349      0.002934      0.003357
Li	      4.22048      2.07027     -1.95614         0.013493     -0.015336     -0.021224
Li	      4.19576      6.25674     -2.27615        -0.013841      0.013889      0.019628
Ti	      4.20293      0.02591     -4.04231         0.074805     -0.003042      0.200702
Ti	      2.10919      4.17011     -2.23589        -0.073157      0.003772     -0.198742
Ni	      4.19482      4.08183      0.01952        -0.000007      0.042183      0.049040
Ni	      4.22297      4.24590     -4.25216        -0.000891     -0.045028     -0.051087
O	      1.96001      2.17342     -2.06841        -0.100647      0.153622     -0.011381
O	      4.20974      4.16348     -2.11640        -0.001145     -0.000301      0.001198
O	      2.17488      4.17046     -4.11780        -0.113225     -0.006814      0.344381
O	      4.20823      2.07330     -0.01974        -0.001763     -0.000526      0.001345
O	      4.14047      0.02753     -2.15997         0.111107      0.005945     -0.342413
O	      2.16319      4.26803     -0.12698        -0.126380      0.131229     -0.042639
O	      4.35484      2.02440     -4.20981         0.103775     -0.151409      0.011990
O	      2.04701      6.11471     -2.04124         0.127989     -0.129586      0.039330
