# total energy = -243.88331962 eV
 
CRYSTAL
PRIMVEC
0.006966 6.519678 6.287300 
6.443975 -0.006210 6.301293 
4.282944 4.342414 0.008191 
PRIMCOORD
36 1
Li	      6.47747      6.50236     12.54004         0.057816      0.019277     -0.069180
Li	      6.50452     10.79744      8.50045         0.066678     -0.055384      0.056618
Li	      4.29678      2.13160      2.19885         0.045236     -0.080699      0.091331
Li	      4.18399      0.12081      4.13873        -0.061022      0.086299      0.001184
Li	      6.33270      2.33874      4.20408        -0.020020      0.079712      0.009990
Li	      6.47365      6.40357      4.26967        -0.002408     -0.031980      0.019460
Li	      4.43368      4.21165      4.20790         0.029216     -0.060687      0.005182
Li	      6.44739      8.64150      6.34627         0.018891     -0.027036     -0.015851
Li	      4.28844      6.52855      6.28831        -0.062007      0.020172     -0.030278
Sc	      2.14813      6.48685      4.26053         0.009550     -0.031257      0.180502
Sc	      6.29615      6.59344      8.40090        -0.092355      0.016871      0.107553
Ti	      2.33920      8.66911      6.27963         0.507243     -0.117264     -0.274023
Ti	      2.38728      4.24592      2.11951         0.338005     -0.157916      0.214461
Mn	      6.38102      4.36827      6.17456        -0.063757     -0.105851      0.053210
Mn	      4.30669      2.16722      6.18734         0.077267     -0.005237     -0.135388
Mn	      4.21914      4.48201      8.35157        -0.109958      0.142779      0.064195
Fe	      0.03572      2.16008      2.11576         0.410283      0.071625     -0.150140
Cu	      4.32890      8.66499      4.22354         0.055272     -0.107874      0.112226
O	      2.15241      2.31709      1.98579        -0.396720      0.111019      0.139741
O	      4.18949      4.31155      2.13580        -0.494028      0.085543     -0.009148
O	      4.32500      2.16116      4.35255        -0.029895      0.009026     -0.058860
O	      6.41305      4.35932      4.32255         0.002424      0.029424     -0.175786
O	      6.40074      2.26912      6.34125        -0.209884      0.104179     -0.420479
O	      8.58791      4.19568      6.43304         0.049660     -0.079302      0.096811
O	      2.08210      4.37727      4.02417         0.282528      0.022638     -0.241500
O	      4.23476      6.66930      4.11626        -0.098251     -0.123780      0.408224
O	      4.22228      4.34108      6.41372        -0.075137      0.046244      0.054541
O	      6.56250      6.41452      6.28873         0.092195      0.007263      0.057699
O	      6.27020      4.39267      8.18656        -0.090893     -0.084395     -0.143667
O	      8.53779      6.30577      8.29978         0.370952     -0.133495      0.017751
O	      2.10897      6.76128      6.27017        -0.010056      0.208207      0.018429
O	      4.14945      8.70148      6.37524        -0.388454      0.001200      0.153513
O	      4.32005      6.56442      8.40924         0.017099      0.010459     -0.014582
O	      6.59866      8.64743      8.40808        -0.033099     -0.050041      0.018048
O	      6.52753      6.32309     10.45265         0.019795      0.250685     -0.039750
O	      8.61678      8.62074     10.51220        -0.212165     -0.070424     -0.102036
