# total energy = -245.59453884 eV
 
CRYSTAL
PRIMVEC
0.010600 6.485328 6.390410 
6.145177 0.028219 6.373289 
4.134370 4.349791 -0.018976 
PRIMCOORD
36 1
Li	      2.10239      2.15983      0.05284         0.029489     -0.026471     -0.014809
Li	      4.09557      8.54961      8.52436        -0.013899      0.012641     -0.000025
Li	      4.05012      0.14053      4.13814         0.007445      0.015712     -0.003831
Li	      2.11064      4.28260      2.07655         0.052014      0.014574      0.026843
Li	      2.13720      2.23567      4.21230         0.017804      0.059690      0.011183
Li	      4.12993      4.18042      4.26781        -0.028023     -0.047019      0.000317
Li	      4.11178      6.56291      6.54917        -0.012179      0.051283     -0.057385
Li	      4.07032      4.47127      8.44104        -0.000204      0.031742      0.021962
Li	      6.00887      6.56825      8.45348        -0.046869      0.017371      0.014683
Sc	      6.08259      4.42279     10.61500        -0.054219      0.025103     -0.051489
Sc	      2.09853      6.48946      4.22393        -0.002325      0.035822      0.003423
Ti	      0.06197      2.10508      2.11858         0.005103     -0.030828     -0.000524
Ti	      6.18031      4.45845      6.36756         0.073288      0.090241     -0.043565
Mn	      2.13704      6.52144      8.50681        -0.030382     -0.022681      0.020753
Mn	      6.13245      8.66187     10.59549         0.109551     -0.046432     -0.008698
Mn	      6.22258      8.67817      6.40031         0.041235      0.023549     -0.012169
Fe	     10.19072      4.37859      6.37702        -0.040504      0.006775     -0.052947
Ni	      8.22271      6.52012      6.37600         0.003831     -0.005901      0.053352
O	      2.00930      2.05058      2.15824        -0.041545      0.002558      0.002426
O	      4.25943      4.50290      2.14235         0.028193      0.084329      0.103908
O	      4.24276      2.16926      4.31747        -0.051443     -0.009213     -0.079258
O	      6.17034      4.16003      4.42593        -0.050419      0.019854      0.099796
O	      6.16335      2.28887      6.49506         0.086316      0.044083      0.135110
O	      8.14534      4.38521      6.41212        -0.227228     -0.067188      0.010255
O	      2.04849      4.37914      4.40429         0.013749     -0.045378      0.073901
O	      4.14260      6.65668      4.07100         0.039236      0.014501     -0.136439
O	      4.13633      4.27853      6.40500        -0.020030      0.051142     -0.009256
O	      6.16861      6.33437      6.37846        -0.156601     -0.158960      0.012610
O	      6.18744      4.21843      8.42778         0.003269     -0.053490     -0.046924
O	      8.36671      6.43267      8.49775         0.106720     -0.003283      0.089748
O	      2.00351      6.52210      6.30670         0.172459     -0.007107      0.017875
O	      4.22621      8.68008      6.29432         0.071945     -0.091946     -0.024995
O	      3.99731      6.51939      8.51499        -0.004012      0.017730     -0.014544
O	      6.17848      8.82363      8.36662        -0.045624     -0.017790     -0.074203
O	      6.14385      6.58134     10.53796        -0.011968      0.018174     -0.035639
O	      8.14012      8.61693     10.60778        -0.024172     -0.003189     -0.031445
