# total energy = -248.15218984 eV
 
CRYSTAL
PRIMVEC
0.054959 6.400724 6.344146 
6.467893 -0.021206 6.420965 
4.294863 4.301050 0.002875 
PRIMCOORD
36 1
Li	     10.53410      4.37447      6.36031        -0.022702      0.035728     -0.097348
Li	      8.47862      2.39030      6.36927        -0.020313      0.004988     -0.057542
Li	      8.58265      4.34652      4.49637        -0.060752      0.083331     -0.066985
Li	      6.46495      2.08832      4.47867         0.005069     -0.035725      0.006896
Li	      8.62633      4.28584      8.27350        -0.025033      0.030899     -0.043876
Li	      6.54779      6.34953      4.37277         0.062182     -0.048158      0.068690
Li	      8.65179      6.18794      6.36527        -0.005624     -0.009235     -0.046291
Li	      6.73368      4.17498      6.33128        -0.005911     -0.038981     -0.042744
Li	      4.42209      6.41844      6.34050         0.023224     -0.004472      0.003728
Sc	      4.35274      8.55202      4.32692         0.013366      0.057414      0.026904
Sc	      4.34994      4.22664      8.46764        -0.052717      0.084833     -0.021674
Ti	      2.17821      0.08457      2.09167         0.115921      0.091361      0.007153
Ti	      4.40845      4.19945      4.33973         0.271508     -0.413647      0.101428
Mn	      2.19468      6.41293      4.26502        -0.113828      0.030056      0.022542
Mn	      6.46690      8.51335      6.39283         0.014331     -0.027492      0.070129
Mn	      6.50715      6.37480      8.45893        -0.034832     -0.002515     -0.003667
Fe	      4.22897      2.15277      2.09539         0.025961      0.028247      0.075605
Fe	      6.46448      2.10056      8.30566         0.030288      0.021108      0.089033
O	      2.07346      1.98348      2.11145        -0.074510     -0.233429      0.002918
O	      4.42192      4.37059      2.27087         0.078441      0.066640      0.036686
O	      4.25698      2.34609      4.16016         0.020582      0.413221      0.160443
O	      6.28756      4.32690      4.19422        -0.309903      0.000879     -0.012100
O	      6.48096      2.11714      6.46515         0.026226     -0.003714     -0.142023
O	      8.62025      4.27552      6.36243         0.001897     -0.009043     -0.022302
O	      2.23943      4.42822      4.22753         0.047536     -0.000552     -0.044150
O	      4.18849      6.37596      4.22008         0.024715      0.002297     -0.035154
O	      4.24960      4.32115      6.28847        -0.044248      0.026729     -0.158630
O	      6.45854      6.62525      6.37607        -0.032000      0.056849      0.007553
O	      6.44131      4.17542      8.58654        -0.004748     -0.031090      0.029657
O	      8.71967      6.47174      8.47454        -0.011927     -0.044866      0.032005
O	      2.19540      6.21030      6.55478         0.028977     -0.006141      0.116751
O	      4.45468      8.51375      6.40048         0.047595     -0.020947     -0.178160
O	      4.21591      6.35453      8.59194        -0.198866     -0.077556      0.049793
O	      6.53738      8.66440      8.55997         0.075851      0.061242      0.035437
O	      6.69339      6.31315     10.62517         0.074517     -0.031259     -0.009194
O	      8.73573      8.37144     10.61500         0.029726     -0.056998      0.038490
