# total energy = -242.26888905 eV
 
CRYSTAL
PRIMVEC
0.001351 6.160648 6.537293 
6.284174 0.007175 6.531483 
4.191595 4.105405 0.002902 
PRIMCOORD
36 1
Li	      0.04027      6.12364      6.50404        -0.036161      0.007539      0.015325
Li	      2.15480      0.03734      2.26415        -0.001470     -0.055797      0.077801
Li	      4.23602      6.21943     10.82763        -0.010752     -0.083849      0.040295
Li	      6.27932      8.18311     10.88550        -0.010738      0.028554      0.002874
Li	      2.14223      4.08852      2.17956        -0.032008      0.008437     -0.014228
Li	      6.22577      4.10494     10.81741        -0.003864      0.029719     -0.028065
Li	      2.11539      4.10447      6.52892        -0.001825      0.002333      0.023029
Li	      4.17133      6.18654      6.52173         0.032834     -0.039381      0.009630
Li	      6.30464      6.06852      8.77545        -0.026917      0.042781     -0.002737
Sc	      8.40950      8.29084     13.02262         0.001792     -0.019562      0.051228
Sc	      4.16711      6.09594      2.23690         0.134574      0.057702     -0.081831
Ti	      4.40947      8.18318      8.67864         0.080122     -0.040276     -0.122027
Ti	      8.19399      6.08227     10.99318        -0.259905      0.029816      0.155918
Mn	      2.09322      2.09049      4.37365        -0.053682      0.027428     -0.050089
Mn	      4.19692      2.02967      6.48563         0.006368     -0.018148      0.018027
Mn	      4.12594      4.19527      8.72594        -0.056240      0.032353      0.010395
Ni	      4.21615      4.09917      4.37246         0.039457      0.050487      0.002810
Ni	      6.25279      4.16374      6.51813         0.034582     -0.034136      0.037361
O	      2.10127      2.08257      2.15112        -0.019195     -0.071497     -0.029061
O	      4.22221      4.01227      2.23812        -0.002047     -0.070952     -0.087173
O	      4.21293      2.07274      4.18102         0.040368     -0.183940     -0.127272
O	      6.25981      4.30317      4.41528         0.088799     -0.054828     -0.093046
O	      6.21291      2.05640      6.60790         0.033040     -0.097293      0.010452
O	      8.34661      4.19685      6.54118         0.129125     -0.027994      0.044439
O	      2.10555      4.08624      4.33237        -0.093169      0.094506     -0.026794
O	      4.14852      6.16099      4.31826        -0.054954      0.081139     -0.048901
O	      4.20606      3.97587      6.51096        -0.089925      0.063137     -0.045180
O	      6.45179      6.18413      6.41470        -0.052326      0.122308      0.008606
O	      6.03715      4.09658      8.66556         0.125006      0.071641      0.051204
O	      8.36035      6.21592      8.85055         0.002045      0.135255      0.074795
O	      2.11309      6.19197      6.34336        -0.080505     -0.050397     -0.238677
O	      4.16506      8.22808      6.77578         0.024789     -0.035777      0.206150
O	      4.21322      6.21995      8.71498        -0.000197      0.014180      0.036377
O	      6.31183      8.25043      8.71990        -0.232757     -0.017330      0.003417
O	      6.38504      6.08942     10.91821         0.287674     -0.003834      0.016033
O	      8.33202      8.09985     10.94386         0.058059      0.005675      0.098913
