# total energy = -249.29043445 eV
 
CRYSTAL
PRIMVEC
0.003945 6.263515 6.474902 
6.423836 0.041581 6.435672 
4.323090 4.190999 -0.012747 
PRIMCOORD
36 1
Li	      6.36226      0.09509      6.33867         0.033563      0.018874     -0.023639
Li	      4.49624      6.30491     10.80066         0.052822      0.000742      0.008864
Li	      6.48139      8.17857     10.81183         0.045268      0.024942      0.020834
Li	     10.65781      6.35453      8.56845        -0.008695      0.000998      0.004830
Li	      8.53018      4.34505      8.54402        -0.004198     -0.002708     -0.032394
Li	      8.63697      6.22210      6.59327        -0.010634     -0.003560      0.092479
Li	      6.45199      4.29671     10.66074         0.041370     -0.049440     -0.088920
Li	      8.37545      6.34178     10.64505        -0.097963     -0.048524     -0.050215
Li	      4.28329      6.29443      6.43767        -0.007370     -0.012086     -0.001222
Sc	      4.26987      4.26259      4.31365         0.016819      0.060867      0.060626
Sc	      2.10524      4.22556      6.45207         0.026219      0.001508     -0.017702
Ti	      8.58077      8.46423     12.72805        -0.051623      0.247677     -0.555154
Ti	      4.23242      2.07901      2.13993        -0.079117      0.032027      0.035515
Mn	      6.48675     10.44861      8.62172         0.020505     -0.049044      0.055898
Mn	      6.42916      6.31408      4.28135        -0.052477     -0.013254      0.037569
Mn	      6.49756      4.25479      6.49889         0.002575      0.026835      0.008472
Mn	      8.67087      8.33887      8.70508         0.021271      0.009911      0.021640
Co	      6.48748      6.26963      8.65049         0.035850     -0.025193      0.151263
O	      2.31805      2.08286      2.04169         0.179091      0.075647     -0.036597
O	      4.36513      4.03886      2.22076        -0.051576     -0.132954      0.002448
O	      4.11717      2.11774      4.15025         0.004058      0.030270     -0.121861
O	      6.39901      4.33264      4.42419        -0.015056     -0.006328      0.010532
O	      6.60839      2.27908      6.46640         0.168709     -0.045846     -0.034740
O	      8.67670      4.09093      6.40142         0.002458     -0.293038     -0.010123
O	      2.16934      4.08113      4.38887         0.012757      0.023385      0.026695
O	      4.52031      6.29591      4.21232         0.051823     -0.013585      0.006429
O	      4.18486      4.19768      6.40735        -0.057805      0.022664     -0.037870
O	      6.45495      6.22810      6.56373        -0.021600     -0.004323      0.044100
O	      6.45798      4.31432      8.46300         0.050420     -0.010660     -0.042007
O	      8.44956      6.29173      8.61319        -0.151189     -0.059651     -0.001343
O	      2.12876      6.31871      6.48815        -0.018678      0.062380     -0.011978
O	      4.27075      8.34835      6.61079        -0.046761      0.026478      0.130983
O	      4.39222      6.35841      8.64144         0.056683      0.183280     -0.011377
O	      6.33874      8.29559      8.59875        -0.128115     -0.046032     -0.027871
O	      6.44388      6.27338     10.56610        -0.005380     -0.038114     -0.154079
O	      8.62117      8.37749     10.88643        -0.014025      0.005856      0.539915
