# total energy = -246.63906629 eV
 
CRYSTAL
PRIMVEC
-0.019654 6.532962 6.411173 
6.365184 0.018563 6.373334 
4.247389 4.333606 0.008539 
PRIMCOORD
36 1
Li	      4.20555      2.18249      2.19625        -0.034592     -0.003252      0.015230
Li	      2.11190      4.26328      2.29473         0.023778     -0.065631     -0.029111
Li	      6.20403      6.64013      4.29296         0.014604     -0.002556     -0.044018
Li	      4.14183      4.52461      4.35423        -0.041353     -0.070490     -0.053479
Li	      6.19012      4.49465      6.34863        -0.035336     -0.013226     -0.075605
Li	      2.21898      6.36288      4.28085        -0.028679     -0.080703     -0.011672
Li	      2.18518      4.36279      6.20931        -0.007691     -0.037474      0.005336
Li	      4.29610      6.30153      6.24952        -0.040124      0.015302     -0.007100
Li	      4.28287      4.38972      8.41608        -0.032500      0.028391     -0.051269
Sc	      4.15595      2.36269      6.35641        -0.134388      0.068873      0.028379
Sc	      6.36656      6.49828      8.51260        -0.021966      0.023669     -0.084380
Ti	      4.32880     10.74383      6.48793         0.166515     -0.291062      0.400341
Ti	      6.39084      2.23745      4.22362        -0.019614      0.302900     -0.365010
Mn	      4.33294      8.59506      4.29393         0.055572     -0.017391      0.003801
Mn	      2.16578      6.55456      8.51015         0.022233      0.013086      0.039210
Mn	      8.49724      4.35859      4.28758        -0.017118      0.093141     -0.032867
Mn	     10.54488      6.54556      8.52649        -0.025385     -0.016633      0.071319
Cu	      2.12410      2.20696      0.05137         0.131437     -0.063438      0.114071
O	      1.90027      2.17016      2.02333         0.019470      0.045832      0.060915
O	      4.20623      4.23698      1.94272         0.033279      0.020219     -0.397608
O	      4.39130      2.02782      4.26689         0.108527     -0.006852      0.081356
O	      6.33515      4.12083      4.30952         0.018765     -0.319585      0.072956
O	      6.25346      2.06685      6.39264        -0.157691     -0.040030     -0.029674
O	      8.63403      4.34071      6.23336         0.061054      0.131491     -0.068817
O	      1.96551      4.31309      4.25690        -0.063296     -0.021535     -0.003311
O	      4.20519      6.47110      4.09413         0.015280      0.066965     -0.042440
O	      4.19471      4.33723      6.36776        -0.016791     -0.127480     -0.026260
O	      6.36564      6.47734      6.48854         0.076974      0.019814      0.031665
O	      6.33257      4.43934      8.70222        -0.022093      0.037987     -0.001148
O	      8.54450      6.54528      8.46297        -0.023421     -0.019382     -0.059662
O	      1.99595      6.66004      6.38305        -0.186132     -0.090602     -0.095752
O	      4.35435      8.85495      6.27094         0.090506      0.384224      0.015292
O	      4.27716      6.57484      8.73644         0.092141      0.007349      0.095328
O	      6.41985      8.65602      8.76273        -0.012767     -0.063617      0.399349
O	      6.46322      6.73235     10.72701        -0.003843      0.055535      0.058981
O	      8.50278      8.87910     10.80744        -0.005354      0.036162     -0.014345
