# total energy = -249.87470218 eV
 
CRYSTAL
PRIMVEC
0.008594 6.487786 6.244556 
6.370405 0.025836 6.226911 
4.259011 4.325945 0.005258 
PRIMCOORD
36 1
Li	      6.41429      4.28211      2.28377         0.040975     -0.049186     -0.117544
Li	      8.34901      4.27682      4.12558         0.067065     -0.008506     -0.005586
Li	      6.42718      2.37218      4.16661         0.013830     -0.013446      0.027362
Li	      6.39502      6.22605      4.15142         0.019130     -0.013455     -0.003844
Li	      4.51244      4.33052      4.11878         0.013223     -0.001629      0.005289
Li	      6.38573      4.30483      6.00988         0.007580     -0.003631      0.150636
Li	      6.35114      4.51204     10.37733        -0.016689      0.055089     -0.011153
Li	      8.35696      6.52801     10.37591        -0.049809     -0.011078     -0.010322
Li	      6.34647      6.57257      8.50914        -0.026242      0.029976      0.070161
Sc	      4.36743      8.62461      8.42943         0.078194     -0.081600     -0.020696
Sc	      4.24838      6.43976      6.16909         0.016913     -0.000413      0.005136
Ti	      4.31223      6.55169      2.21515        -0.010102      0.261007      0.111250
Ti	      4.12754      2.20748      6.12286        -0.129363     -0.069236     -0.119866
Mn	      6.42457      6.51951     12.38902        -0.009489      0.008349     -0.231160
Mn	      8.44310      8.70354     12.32866        -0.006488      0.018997     -0.016586
Mn	      2.10494      4.39031      2.20174        -0.132507      0.038312     -0.010012
Mn	      8.46324      8.71887      8.44757         0.005775     -0.016490     -0.014669
Fe	      2.15173      4.31885      6.06262        -0.071191      0.066356      0.095571
O	      2.04205      2.25789      2.00845        -0.046358      0.148911      0.094479
O	      4.25926      4.35043      1.95418         0.097226      0.044223      0.018360
O	      4.25397      2.20674      4.27958         0.002884      0.026642      0.110384
O	      6.41402      4.32094      4.15222        -0.049672      0.002492     -0.029351
O	      6.28259      2.15012      6.34726        -0.067744     -0.008603      0.068452
O	      8.51360      4.51216      6.40046         0.056894      0.061747      0.033829
O	      2.12215      4.35237      4.08341        -0.013943      0.039814     -0.267889
O	      4.30435      6.38736      4.05620        -0.018064      0.010341     -0.166489
O	      4.27340      4.25406      6.34304         0.101840     -0.073017      0.022454
O	      6.48343      6.49629      6.23408         0.213962     -0.133042     -0.012403
O	      6.32695      4.16035      8.37288        -0.114615     -0.303277      0.010037
O	      8.61928      6.48505      8.26494         0.046841     -0.156045      0.042046
O	      2.15681      6.49250      6.17014         0.017476      0.114117      0.012379
O	      4.22935      8.60144      6.27529        -0.065356      0.005404      0.037575
O	      4.30565      6.55520      8.23931        -0.009272      0.098533     -0.021686
O	      6.38174      8.64746      8.23361         0.015273     -0.019694      0.116338
O	      6.34531      6.50040     10.55149        -0.016669      0.046544      0.123092
O	      8.48878      8.69046     10.35950         0.038493     -0.114506     -0.095575
