# total energy = -247.41530625 eV
 
CRYSTAL
PRIMVEC
0.052189 6.395417 6.477690 
6.309584 0.008525 6.521142 
4.188938 4.274354 0.023776 
PRIMCOORD
36 1
Li	      0.11151      6.40216      6.49116         0.015900     -0.027185      0.010185
Li	      6.36441     10.56913      8.66881        -0.000877      0.001225      0.008465
Li	      6.27396      2.18616      8.62878         0.039987     -0.006297     -0.030824
Li	      6.36669      6.35160      4.50664         0.020777     -0.000302      0.074166
Li	      8.34940      6.50525      6.56022        -0.023157      0.003128     -0.022461
Li	      6.23024      4.37431      6.53546         0.060223      0.001099      0.008228
Li	      6.38958      8.48185      6.66508        -0.011518      0.016677      0.029461
Li	      4.22342      4.18535      8.49854        -0.027136     -0.077956      0.012769
Li	      6.31325      6.46418      8.50291        -0.013077      0.015895      0.027121
Sc	      2.04333      2.05506      0.08243         0.016449      0.022085      0.047972
Sc	      6.26367      2.09083      4.37457        -0.004703      0.043392      0.009595
Ti	      8.43228      4.41964      8.53971         0.031899      0.168503     -0.265600
Ti	      0.13907      4.19626      4.25352         0.070499     -0.163543     -0.062162
Mn	      8.32513      4.30364      4.33305         0.005934     -0.021976      0.043577
Mn	      4.21585      2.17099      2.19594        -0.027973     -0.027062      0.002646
Mn	      4.24530      4.31009      4.41944         0.017672      0.001758     -0.012199
Mn	      4.30464      6.35329      6.56479        -0.029362     -0.012937      0.028984
Ni	      8.43330      6.40308     10.84419        -0.038561      0.018951     -0.032915
O	      2.24559      2.29207      2.11920        -0.043117      0.017119     -0.019872
O	      4.10053      4.17886      2.22949        -0.050630      0.036900     -0.043662
O	      4.21396      2.13948      4.43006        -0.014418     -0.019800     -0.019053
O	      6.35265      4.21902      4.33915         0.056587      0.020238      0.055364
O	      6.37261      2.07012      6.44284        -0.029368      0.013799      0.041990
O	      8.39544      4.24404      6.66051         0.007546      0.023214      0.216358
O	      2.04938      4.32949      4.21275        -0.196091     -0.116482     -0.069507
O	      4.18999      6.53845      4.29372         0.122839      0.201846     -0.058066
O	      4.23107      4.41210      6.50788        -0.002883     -0.044678      0.020409
O	      6.17861      6.39462      6.53315         0.051527      0.040606     -0.008493
O	      6.46877      4.24009      8.84172         0.034861      0.038018      0.104210
O	      8.43993      6.28481      8.73296        -0.006755     -0.183696     -0.118650
O	      2.27170      6.41224      6.42642        -0.022139     -0.033139      0.059282
O	      4.24233      8.42825      6.31593        -0.012646      0.026835     -0.058827
O	      4.20276      6.59211      8.70176        -0.008458     -0.011917      0.028830
O	      6.19845      8.54151      8.75099         0.023025      0.011841      0.004968
O	      6.27654      6.28512     10.87937        -0.048256     -0.030343     -0.018050
O	      8.49969      8.52581     10.85801         0.035400      0.054187      0.005762
