# total energy = -253.28594374 eV
 
CRYSTAL
PRIMVEC
0.027624 6.661780 6.277501 
6.344654 0.027004 6.279302 
4.263535 4.477254 -0.016969 
PRIMCOORD
36 1
Li	      6.27668      4.44937      2.08906         0.027910     -0.029808     -0.007934
Li	      4.22739      2.43234      2.09574         0.090611     -0.032957      0.006869
Li	      6.31735      2.36040      4.07508         0.029060      0.057099      0.019590
Li	      4.41177      6.53826      2.09865        -0.045451      0.025217      0.006678
Li	      2.35090      4.20306      2.13439        -0.069076      0.024342      0.064985
Li	      2.10873      2.19955      3.98226         0.019043     -0.013882      0.004232
Li	      4.27863      4.45934      3.99406        -0.020312      0.037901      0.042289
Li	      6.36191      8.95485      6.40515        -0.006628      0.043679     -0.080252
Li	      6.39785      6.89341      8.34471        -0.022874      0.004374     -0.028143
Sc	      4.18937      2.31855      6.28971         0.025368      0.144560      0.113159
Sc	      6.36040      4.50053      6.31948        -0.064401     -0.005257      0.095477
Ti	      4.18810      0.13316      4.07403        -0.052729      0.186644     -0.304133
Ti	      0.13086      4.32126      4.13115         0.395674     -0.145372     -0.133583
Mn	      4.29393      4.46202      0.09078         0.024037     -0.008703     -0.004994
Mn	      2.12136      2.21587      0.08382        -0.051869     -0.078143     -0.073652
Mn	      2.14382      6.59178      4.11083        -0.023829     -0.066987     -0.022996
Mn	      4.26781      6.68551      6.32510        -0.023084     -0.042596      0.016697
Mn	      8.37930      8.92248      8.43378         0.053986     -0.005443     -0.121956
O	      2.15618      2.25187      1.94039         0.048461      0.007702     -0.000164
O	      4.27504      4.47993      1.97741        -0.031364     -0.031725      0.026511
O	      4.27162      2.00872      4.15933         0.051570     -0.246494      0.018615
O	      6.56935      4.47518      4.23283         0.115884     -0.016225     -0.015441
O	      6.37613      2.35528      6.29002         0.076723      0.011828     -0.032064
O	      8.53275      4.58933      6.23574         0.047119      0.113440     -0.018334
O	      1.98458      4.45105      4.09784        -0.405245     -0.016567      0.031988
O	      4.27854      6.89613      4.16112         0.027630      0.172474     -0.039202
O	      4.29782      4.41810      6.15212         0.038141     -0.070422      0.011290
O	      6.41831      6.57848      6.29301         0.039829     -0.023038      0.028357
O	      6.16061      4.49794      8.49127         0.010161      0.006508      0.150825
O	      8.43898      6.95620      8.33749        -0.019304      0.012658     -0.042717
O	      2.05529      6.70257      6.26846        -0.065695     -0.049482     -0.069903
O	      4.20586      8.88005      6.18102        -0.041113     -0.013033     -0.021170
O	      4.26711      6.48904      8.48657        -0.006412      0.021144      0.361234
O	      6.52295      8.92029      8.37931        -0.078474      0.012107      0.074476
O	      6.26123      6.52109     10.64843        -0.068672     -0.048600     -0.029848
O	      8.58104      9.04795     10.62796        -0.024677      0.063058     -0.026789
