# total energy = -196.72395967 eV
 
CRYSTAL
PRIMVEC
0.009477 6.094758 6.269114 
6.074023 0.024282 6.254666 
4.066648 4.070691 -0.001149 
PRIMCOORD
36 1
Li	      6.14481      6.19052     12.49538         0.079789     -0.042351      0.085396
Li	      8.05428      8.12823     12.46350         0.011234     -0.029385     -0.016040
Li	      1.97130      0.03527      2.03527        -0.063075      0.057155     -0.048711
Li	      8.12990      4.05552      4.21777         0.018717     -0.015557     -0.076013
Li	      6.06227      2.03865      4.22124         0.038240     -0.039198      0.013782
Li	      6.05938      1.99888      8.25710         0.024873     -0.044595      0.002740
Li	      4.07813      4.06510      4.16141        -0.038538      0.058548     -0.088565
Li	      4.09832      2.02718      6.24819        -0.008066      0.031982     -0.028911
Li	      2.03583      6.12317      4.20863        -0.015395      0.007255     -0.007440
Co	      8.14302      4.11605      8.30145        -0.491220     -0.007503     -0.752874
Co	      2.10632      1.98038      4.15449        -0.883412      0.123384      0.085839
Co	      6.12405      3.99977      6.20173        -0.261711      0.011125     -0.087034
Co	     10.11588      8.19329     10.46622        -0.055722      0.095284      0.043842
Co	      2.05029      4.08611      6.27172         0.090065      0.087088      0.223291
Co	      4.05695      6.12658      6.29191         0.005114     -0.036239     -0.095505
Co	      6.10228      6.10057      8.34058         0.087307     -0.067187     -0.044194
Cu	      4.06096      2.06956      2.10418        -0.073378      0.172576      0.079971
Ni	      8.12848      8.12303      8.39843        -0.006625      0.006948     -0.050305
O	      8.27300      8.12665     10.36443         0.143760      0.013874      0.199416
O	      2.06165      2.14974      2.13911         0.019893      0.442471     -0.004790
O	      3.93638      4.05259      2.06117         0.039483      0.092253     -0.027114
O	      3.94160      2.05589      4.12805        -0.299459     -0.229701     -0.076722
O	      6.05315      4.10400      4.32256         0.167264      0.594897      0.237912
O	      6.05232      2.20289      6.23116         0.044840      0.249156     -0.011822
O	      7.92191      4.09205      6.26625         0.319725     -0.066048      1.085378
O	      1.91687      4.05071      4.33794         0.154055     -0.515896     -0.441280
O	      4.16403      6.23224      4.34964         0.570222     -0.121639      0.075058
O	      4.06125      4.20185      6.35065         0.034650      0.006777     -0.083853
O	      6.00359      6.11871      6.35563         0.019185     -0.065811      0.171453
O	      6.15501      4.16040      8.22007         0.233360      0.041898     -0.181365
O	      8.01979      6.05100      8.33283        -0.071688     -0.478041      0.050448
O	      2.14050      5.98227      6.30186         0.071933     -0.095642     -0.060394
O	      4.19437      8.06507      6.32240         0.084971     -0.052222      0.001823
O	      4.15243      6.13582      8.22486         0.015232     -0.079650     -0.026101
O	      6.09122      8.03286      8.23785        -0.017575     -0.020027     -0.113930
O	      6.07975      5.99032     10.26362         0.011951     -0.085980     -0.033386
