# total energy = -102.47735048 eV
 
CRYSTAL
PRIMVEC
0.000102 2.102597 2.103977 
4.004553 -0.000224 0.000422 
-0.001552 8.978026 -8.991342 
PRIMCOORD
16 1
Li	      0.00775      2.37906      1.82219         0.011095      0.011933     -0.007023
Li	      2.01014      1.89766      0.20675         0.012045     -0.014665      0.006476
Li	      4.00002      6.65251     -2.46731        -0.004192      0.004116     -0.008570
Li	      1.99636      6.59849     -4.49566        -0.003286     -0.002755      0.009740
Ti	      1.91854      4.49649     -2.42297        -0.114079     -0.021287      0.023939
Ti	      3.91973      6.65254     -6.64383        -0.120599      0.016803     -0.019700
Ni	      0.00541      4.22162     -0.02498         0.008667      0.042039     -0.041776
Ni	      2.00473      9.03176     -6.93743         0.008519     -0.039411      0.039785
O	      0.01019      6.74882     -4.64002        -0.012513      0.066236     -0.076978
O	      2.03071      6.67368     -6.66182         0.149429     -0.050015      0.031234
O	      0.03093      4.47614     -2.40496         0.152282      0.050553     -0.029750
O	      2.01493      6.50317     -2.32184        -0.023105     -0.061358      0.070211
O	      0.01409      2.27591     -0.18050         0.001978     -0.151566      0.143153
O	      2.03104      4.62990     -0.45095        -0.042293      0.151307     -0.144956
O	      0.02453      8.62236     -6.51176        -0.026685     -0.150455      0.144943
O	      2.01419      8.87529     -8.88603         0.002738      0.148524     -0.140727
