# total energy = -196.66861986 eV
 
CRYSTAL
PRIMVEC
0.045693 6.060036 6.088956 
6.125073 0.021854 6.112789 
4.083319 4.055944 0.014424 
PRIMCOORD
36 1
Li	      4.21100     10.10246      6.18108         0.154849     -0.070224      0.029936
Li	      2.11279      7.99915      6.09483         0.073394     -0.112806      0.017372
Li	      2.05395      6.03641      7.98771        -0.015080     -0.019483     -0.109259
Li	      6.23298      8.14016     10.15454        -0.021540      0.068377      0.023697
Li	      2.10601      3.99476      2.05567        -0.034052      0.039550     -0.035544
Li	      4.08898      4.05983      4.02390         0.075691     -0.032154      0.088637
Li	      2.06046      4.15904      6.11088        -0.080493      0.097649      0.050323
Li	      3.99131      6.07503      6.12317        -0.117788      0.050211      0.003629
Li	      4.08155      4.08500      8.13091         0.006305     -0.027429     -0.124069
Co	      4.14599      8.12489      8.03587        -0.118352      0.371566      0.203860
Co	      4.07619      0.03885      4.07940         0.123731     -0.273624      0.061059
Co	      6.15212      6.09324      4.10429        -0.325850      0.159833     -0.113178
Co	      4.10165      2.06490      6.12610         0.024126      0.136080      0.153484
Co	      6.13794      4.05864      6.12087        -0.050088     -0.022566     -0.279973
Co	      4.09913      8.09435      4.10311         0.243703     -0.000365      0.228012
Co	      6.12831      6.08654      8.12490         0.139953     -0.024335     -0.070974
Ni	      2.08033      6.06866      4.15391        -0.028012     -0.036418     -0.231739
Ni	      0.08218      1.95488      1.99333        -0.041818     -0.005989      0.078977
O	      2.08184      6.07582      6.05135        -0.042857      0.001831      0.221425
O	      2.14709      1.99827      2.19062         0.222946      0.007989      0.172242
O	      4.09851      3.95756      2.08235        -0.100152     -0.321410      0.042890
O	      3.97950      1.95551      4.15719         0.083169      0.045490      0.200947
O	      6.25942      4.17189      4.19882         0.013450      0.000734      0.150159
O	      6.01367      2.13901      6.12326        -0.029425      0.032726     -0.104923
O	      8.07527      4.19970      6.02581         0.005070      0.031427     -0.112984
O	      1.90390      3.99023      4.08281        -0.362691     -0.301481     -0.014174
O	      4.18214      6.16477      4.02878         0.231014      0.047066      0.018863
O	      4.22608      3.90764      6.05897         0.030471     -0.163233      0.035615
O	      6.24236      5.99155      6.13282         0.036887     -0.011347     -0.043834
O	      6.13408      4.12398      8.08538        -0.000523      0.093639     -0.223827
O	      8.10018      6.08489      8.02860        -0.082910      0.015682     -0.083453
O	      4.09274      8.09574      6.16584        -0.006386      0.020488     -0.426903
O	      4.22623      6.18567      8.22903        -0.042956     -0.014698      0.182555
O	      6.02141      7.99045      8.15437         0.039341     -0.092711      0.084247
O	      6.11044      5.99092     10.03753        -0.252446      0.021530     -0.059859
O	      8.32700      8.19121     10.17096         0.249321      0.288406     -0.013234
