# total energy = -199.65559588 eV
 
CRYSTAL
PRIMVEC
0.041749 6.115577 6.235347 
5.989719 0.035122 6.241953 
4.038993 4.126596 -0.022055 
PRIMCOORD
36 1
Li	      0.07706      0.09176      0.02813         0.016919     -0.023000      0.056382
Li	      1.99158      2.03663     -0.00418         0.048081     -0.067141     -0.034903
Li	      2.01523      6.13536      8.22325        -0.020732     -0.020901     -0.022665
Li	      6.09847      8.20348     10.42198         0.027107     -0.014513     -0.073621
Li	      6.00849      2.07806      8.24889         0.017809     -0.031170      0.035358
Li	      2.00719      2.05908      4.10448        -0.043289      0.031315     -0.047411
Li	      2.03609      6.15534      4.18790         0.019301      0.018895      0.027273
Li	      2.04048      4.15004      6.28546         0.002842      0.033730      0.014957
Li	      7.98946      8.13653      8.33491        -0.027820      0.018168      0.064675
Co	      4.05828      8.17617      8.28694         0.028342      0.260196      0.250945
Co	      8.00744      4.13685      4.14568         0.170816     -0.261854     -0.153443
Co	      8.02577      4.12614      8.29186         0.201679     -0.131178      0.248569
Co	      4.02716      4.14155      4.13190         0.017763      0.086327     -0.101082
Co	      6.04050      4.10323      6.24916        -0.065502     -0.039507     -0.218927
Co	      0.04023      4.06494      4.14981        -0.101598      0.014787     -0.010509
Co	      3.99250      6.19567      6.22841        -0.215353      0.215594     -0.169236
Co	      6.02419      6.14894      8.29713         0.022033      0.097915     -0.040587
Cu	      4.02164      2.07394      6.25639        -0.151895     -0.059007     -0.162906
O	      2.18093      6.13305      6.23800         0.173698      0.008770     -0.016085
O	      2.15981      2.16772      2.07010        -0.020581      0.037054     -0.029353
O	      3.98289      4.00181      2.11943        -0.108804     -0.064983     -0.047835
O	      4.00710      1.95735      4.03168        -0.007201     -0.102776      0.158004
O	      6.11384      4.12899      4.31813        -0.001058      0.010006      0.181806
O	      5.91396      2.18995      6.25413         0.154864      0.107368     -0.037214
O	      7.95301      4.09140      6.34792        -0.052164      0.347227      0.036787
O	      1.94346      4.09658      4.00741        -0.110921      0.031832     -0.202004
O	      4.04865      6.26895      4.30381        -0.083581      0.272572      0.173334
O	      4.10142      4.27811      6.16816         0.156476     -0.174466      0.073067
O	      6.02911      6.07701      6.35175        -0.079769     -0.129991      0.100213
O	      6.09848      4.20203      8.20335        -0.001822     -0.011260      0.609763
O	      7.93675      6.06932      8.29689        -0.048578     -0.034517      0.030083
O	      4.09911      8.06134      6.33589         0.008938     -0.111377     -0.820312
O	      4.08730      6.24620      8.18659         0.059108     -0.122220      0.011226
O	      5.92507      8.06582      8.31493        -0.008261     -0.105425      0.027114
O	      5.93443      6.04510     10.23231        -0.079176     -0.210355     -0.003532
O	      8.16406      8.34528     10.35904         0.102331      0.123885      0.092072
