# total energy = -201.99892954 eV
 
CRYSTAL
PRIMVEC
-0.041002 6.091907 6.109593 
6.084617 -0.005080 6.073077 
4.074537 4.054984 -0.021479 
PRIMCOORD
36 1
Li	     10.01491      4.08454      6.11500        -0.016701      0.005346     -0.015420
Li	      8.09392      4.08178      4.16321         0.008378      0.029665     -0.025235
Li	      6.00829      2.01289      8.03157         0.041530     -0.045943      0.002041
Li	      8.08371      4.08752      8.02087        -0.023067     -0.023828      0.032351
Li	      4.09555      4.06020      4.04925         0.009517      0.006000     -0.013028
Li	      8.18021      5.96645      6.13244        -0.010665     -0.043934     -0.033522
Li	      6.11431      4.04531      6.14124         0.013395     -0.023030     -0.003181
Li	      2.06956      4.07012      6.07054         0.032190     -0.017369     -0.007965
Li	      4.07379      4.00164      8.04310        -0.029520      0.040536     -0.028605
Co	      8.09497      2.04226      6.05922        -0.116112      0.048165     -0.015502
Co	      1.98594      6.08351      8.11201        -0.072599      0.079194      0.104205
Co	      4.07545      2.05865      1.99222         0.066894     -0.101622      0.100207
Co	      6.07019      2.10191      4.08226        -0.076686      0.000973     -0.064070
Co	      2.07880      2.05296      4.08883         0.024260      0.086211      0.033599
Co	     10.11771      8.11770     10.12612         0.001290      0.065154     -0.153601
Co	      2.01449      6.04771      4.05204        -0.023306     -0.068048     -0.005445
Co	      4.04717      6.05349      6.09616         0.132237     -0.206114      0.067706
Co	      6.11265      6.01846      8.10992        -0.130525      0.040618      0.128050
O	      2.13586      1.91172      1.92548        -0.038445     -0.022593     -0.004089
O	      4.22259      3.95695      1.97715         0.006658      0.032544      0.000870
O	      4.10492      2.03057      3.91602         0.103632      0.022732     -0.040074
O	      6.13651      4.12836      3.85504         0.024406     -0.123118     -0.113329
O	      6.16698      2.02097      5.93851         0.056405     -0.027621      0.049512
O	      8.10164      3.93390      6.06413         0.009370     -0.076090      0.033468
O	      1.85737      4.09138      4.07559        -0.022629      0.112417     -0.015687
O	      3.97699      6.19255      4.15582        -0.058295      0.029966      0.057534
O	      4.02729      4.24548      6.07278         0.002109      0.274284      0.003461
O	      5.93056      6.12572      6.17184        -0.128287     -0.042264      0.215397
O	      6.00872      4.10745      8.26981         0.259387      0.759317      0.047872
O	      8.03949      6.10406      8.22252        -0.763118     -0.278802      0.034196
O	      2.13280      6.15091      6.08640         0.023808      0.025512     -0.074348
O	      3.92797      8.00990      6.09558        -0.001055     -0.008633     -0.027546
O	      3.99920      6.18430      8.00453         0.582248     -0.006970     -0.075424
O	      5.95980      8.16892      8.23868        -0.048962     -0.417572      0.008726
O	      6.17975      5.99967     10.03971         0.100515     -0.115319     -0.207067
O	      8.10063      7.98118     10.24358         0.061746     -0.009765      0.003942
