# total energy = -181.80077905 eV
 
CRYSTAL
PRIMVEC
0.017662 6.105618 6.243561 
6.128508 0.022194 6.238537 
4.071256 4.052889 0.029484 
PRIMCOORD
36 1
Li	      8.11590      2.09882      6.19704         0.022553     -0.009331     -0.095736
Li	      4.06835      2.06085      2.16905         0.045351     -0.056514      0.019443
Li	      4.09788      0.08697      4.18856        -0.001884     -0.009237     -0.018496
Li	      6.12966      8.10409     10.43946         0.013404      0.064475     -0.052403
Li	      6.11677      2.05701      8.24623        -0.022213      0.036000     -0.060853
Li	      4.08654      4.00620      4.14297         0.026766     -0.022493      0.012637
Li	      4.15226      2.00355      6.14990        -0.001487      0.039298     -0.076395
Li	      6.12541      4.11808     10.38711        -0.065998     -0.030886      0.002397
Li	      6.13795      6.11676      8.44494        -0.031274      0.047648      0.056816
Fe	      4.08952      6.16783      6.25330        -0.014465     -0.129191      0.232687
Co	      4.12881      4.08259      8.33596        -0.150037     -0.040076     -0.144189
Cu	      8.14042      6.15975     10.39499         0.155864      0.039013     -0.016523
Ni	      6.10085      0.05388      6.22286        -0.061916     -0.077925     -0.021877
Ni	      6.08352      4.06963      2.16927         0.083677     -0.121439     -0.000999
Ni	      2.04024      4.05080      2.11670        -0.094966      0.005533     -0.007416
Ni	      2.07848      2.03374      4.16642        -0.230744     -0.041071     -0.035739
Ni	      6.16437      4.01967      6.22672        -0.061643      0.049851      0.037404
Ni	      2.07831      4.04854      6.23607         0.031892     -0.057662      0.118989
O	      6.19141      6.11407     10.54186         0.076232     -0.018006     -0.152490
O	      2.01121      1.99722      2.32129        -0.037821      0.036620     -0.214554
O	      4.09398      4.05756      1.93643        -0.012239      0.008031      0.229199
O	      3.90845      2.04742      4.15869         0.444287      0.010350      0.001190
O	      6.12640      4.21403      4.21750        -0.013026     -0.317967      0.030350
O	      6.13236      2.06627      6.20268        -0.021221      0.018198      0.027907
O	      8.18082      4.04532      6.37716         0.002317      0.020734     -0.105865
O	      2.05886      3.95972      4.13154        -0.011966      0.273521      0.039825
O	      4.12903      6.08388      4.35687        -0.306804     -0.038179     -0.340927
O	      4.11406      4.17209      6.38799         0.047445     -0.187043     -0.071098
O	      6.09603      6.07202      6.09836         0.249700     -0.086040      0.157167
O	      6.04370      4.08897      8.19255         0.230056      0.039030      0.056215
O	      8.14794      6.18322      8.47567         0.023321      0.027624      0.059660
O	      2.05152      6.08823      6.19059        -0.167562      0.080557     -0.107675
O	      4.11559      8.05172      6.30432        -0.078750      0.287267      0.007039
O	      4.06554      6.01442      8.19170         0.023632      0.057814      0.255456
O	      6.28980      8.19886      8.29964        -0.107461      0.011208      0.062229
O	      8.19401      8.10688     10.22284         0.016979      0.090287      0.116626
