# total energy = -182.70979393 eV
 
CRYSTAL
PRIMVEC
0.005346 6.119836 6.302011 
6.108202 0.010803 6.296369 
4.067061 4.071120 0.012501 
PRIMCOORD
36 1
Li	      6.08226     10.18513      8.38354        -0.018981      0.070628      0.053476
Li	      4.03497      2.09393      2.07617        -0.015214     -0.049980      0.039569
Li	      6.08108      2.07468      8.38191         0.023747      0.053375      0.103847
Li	      8.08548      6.20085      6.39187        -0.101967      0.010194      0.005532
Li	      6.07294      4.09341      6.39759         0.048311      0.089469      0.006103
Li	      6.10853      4.09964     10.42075         0.050025     -0.084604     -0.077831
Li	      8.10955      6.14638     10.42829         0.045569     -0.015108     -0.053953
Li	      6.14375      8.12042      6.39185         0.019822     -0.050074      0.009542
Li	      6.17021      6.10915      8.38485         0.003502     -0.012830     -0.086349
Fe	      4.11757      6.11692     10.42382        -0.447754      0.285289      0.087745
Co	      6.08728      6.12696      4.24522        -0.147669      0.029688     -0.116751
Cu	      2.04630      8.11558      6.32494         0.038172      0.383933     -0.044867
Cu	      4.07447      4.07254      4.20219         0.113495     -0.063421      0.041110
Cu	      4.09827      4.05263      8.35115         0.127964     -0.066575      0.190062
Ni	      4.09558     10.16444      6.34626        -0.008097     -0.127710      0.229740
Ni	      6.12509      8.15777     10.45751        -0.071630      0.070441     -0.098951
Ni	      8.10418      4.10571      8.41943        -0.191972      0.055425     -0.039702
Ni	      4.08490      6.12203      6.32540         0.105654     -0.075334      0.092834
O	      8.14981      6.11819      8.36411         0.035089      0.326381     -0.005700
O	      6.21784      8.14977      8.45179        -0.057411      0.013958     -0.149072
O	      8.13865      8.21993     10.31377         0.097632     -0.353919      0.095553
O	      1.99479      2.13524      2.36468         0.025270     -0.271695      0.098701
O	      3.97437      4.08098      1.98022         0.378565      0.008844      0.085154
O	      4.00343      2.03056      4.25111        -0.045087      0.023844     -0.004310
O	      6.10513      4.19442      4.19918        -0.005473      0.007834      0.058987
O	      6.29267      1.96361      6.20493        -0.209364     -0.066163      0.134431
O	      8.16793      3.90427      6.27354        -0.108185     -0.011229     -0.095915
O	      2.12352      3.96220      4.17823        -0.178646     -0.084036      0.170663
O	      4.18440      6.00676      4.29646         0.187277      0.188154     -0.200420
O	      4.06323      4.15428      6.41806         0.003406     -0.245265     -0.313783
O	      6.01617      6.16299      6.10827         0.224963      0.011725     -0.016944
O	      6.09343      4.08749      8.38790        -0.278872     -0.022468     -0.018995
O	      2.08118      6.27210      6.31504        -0.178749     -0.271518      0.016767
O	      3.91787      8.13223      6.34769         0.077542      0.397417     -0.053796
O	      4.11318      6.04646      8.44025         0.009802     -0.043006     -0.023711
O	      6.04339      6.13801     10.65454         0.449261     -0.111667     -0.118765
