# total energy = -183.77554542 eV
 
CRYSTAL
PRIMVEC
0.011758 6.132109 6.170386 
6.170141 0.008860 6.173398 
4.139926 4.116795 -0.020888 
PRIMCOORD
36 1
Li	      2.10070      8.13399      6.17051        -0.107428     -0.001868     -0.008392
Li	      4.09888      2.08205      2.04880         0.041963     -0.094257      0.045753
Li	      6.20474      8.20274     10.25301        -0.016156     -0.061925      0.013907
Li	      4.16004      6.16004      2.06317        -0.086551      0.027708     -0.091940
Li	      4.15867      4.13711      4.06012         0.020141      0.038074      0.091203
Li	      6.15806      4.10375      6.15156        -0.064332      0.017732      0.036781
Li	      2.10844      6.17797      4.12159         0.020045      0.071826     -0.105611
Li	      4.11437      6.17021      6.13292         0.085258     -0.077195      0.059923
Li	      6.17512      6.13415      8.24005         0.061336      0.032132     -0.090658
Fe	      2.06885      4.11280      6.15429         0.283798     -0.215803      0.342498
Co	      4.15831      2.04590      6.19086        -0.623195      0.083045     -0.470758
Cu	      6.17051      0.01778      6.17325        -0.021091      0.270733      0.155297
Cu	      8.24357     10.23445     10.25854        -0.051991      0.092566      0.088562
Cu	      6.18406      6.16290      4.08514         0.239924      0.067103      0.240697
Cu	      8.27611      8.20442      8.22291         0.198847     -0.443643     -0.166658
Ni	      6.16648      4.15168      2.04303         0.017554     -0.046244     -0.174295
Ni	      2.09513      4.07573      2.07351        -0.240206      0.502126     -0.313751
Ni	      4.12948      8.18527      4.09235         0.013339     -0.031953     -0.006173
O	      8.23052      6.15994      8.02072         0.051108     -0.065923      0.712795
O	      4.08132      6.07245      8.29463         0.017089      0.299238     -0.223740
O	      6.10670      5.99474     10.33615        -0.130549      0.248357      0.273039
O	      8.23426      8.25134     10.18902        -0.084001     -0.048413      0.141237
O	      2.08617      2.06787      2.12023        -0.007546     -0.173324      0.035495
O	      4.11512      4.09676      1.97040         0.184600      0.016918     -0.316678
O	      4.07944      1.98641      4.28028        -0.112687     -0.100955     -0.340602
O	      6.24079      4.19706      4.06823         0.011971      0.065531      0.206462
O	      5.98763      1.99630      6.12876         0.639301     -0.261944      0.017328
O	      8.30147      4.23234      6.14831        -0.106599     -0.202228      0.184885
O	      2.10773      4.07203      4.12910         0.078643     -0.112119     -0.034307
O	      4.21061      6.29852      4.13577         0.045996     -0.277274     -0.010684
O	      4.11866      3.98028      6.24210         0.016903      0.130375     -0.028899
O	      6.35922      6.20562      6.10448        -0.227776      0.035436     -0.135994
O	      6.17390      4.10160      8.37134         0.004582      0.047603     -0.063489
O	      2.00595      6.11396      6.17793         0.121518      0.089456     -0.140156
O	      4.19129      8.23063      6.03913        -0.070899      0.105240      0.088453
O	      6.26016      8.24644      8.14185        -0.202910     -0.026131     -0.011528
