# total energy = -182.87807955 eV
 
CRYSTAL
PRIMVEC
0.014715 6.205322 6.060808 
6.407638 0.028480 6.047581 
4.289197 4.144806 0.001488 
PRIMCOORD
36 1
Li	      2.21227      8.20977      6.04524         0.048909     -0.012841      0.055848
Li	      2.28318      6.15948      8.06701        -0.021329     -0.017156      0.023899
Li	      4.43544      8.17468      8.06341         0.085686      0.086216     -0.055958
Li	      6.34146      4.26490      6.10147        -0.102913     -0.013289     -0.083323
Li	     10.62600      8.30953     10.06002         0.015887     -0.062822      0.032952
Li	      6.43915      8.29111      6.17663         0.050310     -0.002832     -0.015052
Li	      4.29837      6.22404      6.18616        -0.027563      0.016094     -0.107708
Li	      4.17607      4.24985      8.05044        -0.071517     -0.005567     -0.165650
Li	      6.32328      6.27652      8.06874        -0.010802      0.003485     -0.060779
Fe	      4.37187     10.23477      6.04854        -0.186908      0.145858      0.548167
Co	      4.30406      4.18733      4.05987        -0.389788      0.030129     -0.376616
Cu	      4.37091      6.11816      9.98891         0.082113      0.041857      0.163378
Cu	      8.52703      4.14353      8.02761         0.139266      0.021647      0.194761
Cu	      6.42168      6.24295      4.05849        -0.023876     -0.120278      0.079576
Cu	      4.28263      2.11981      6.02832        -0.118141      0.437274     -0.023146
Cu	     10.68161      6.26936      8.08653         0.053454     -0.045978     -0.030838
Ni	      6.48007      8.29522     10.05612        -0.171560      0.354842      0.287547
Ni	      8.49594      6.26733     10.08680         0.167765     -0.240761      0.170516
O	      8.64295      6.14554      7.99862        -0.000580     -0.072609      0.141956
O	      4.29734      6.22486      8.12666         0.025710      0.014943      0.044640
O	      6.44466      8.32526      8.22185        -0.039221     -0.079726     -0.359094
O	      8.37837      8.30067     10.07948         0.351466      0.131064      0.034014
O	      2.00438      2.13928      2.17563        -0.054642      0.027530     -0.021630
O	      4.19042      4.22421      2.12074        -0.244615      0.115150     -0.414880
O	      4.54406      2.25263      4.07718        -0.080126     -0.178834     -0.059411
O	      6.16911      4.36102      4.03661         0.467301      0.072496      0.040029
O	      6.36853      1.93199      6.01968        -0.027852      0.078019      0.016384
O	      8.72932      4.20948      5.96634        -0.073381     -0.077884     -0.284464
O	      2.37652      4.00418      3.99949        -0.130691      0.049664      0.015791
O	      4.08107      6.09537      4.02784        -0.144523      0.027201      0.020865
O	      4.28223      4.11048      5.90089         0.104981     -0.168260      0.614749
O	      6.57514      6.24329      5.90458         0.092640     -0.027182      0.059723
O	      6.54961      4.06642      8.05451         0.052006     -0.004887      0.015582
O	      1.94463      6.18231      6.06613         0.390292      0.105710     -0.184066
O	      4.27368      8.43861      6.06904        -0.067874     -0.508279     -0.001467
O	      6.48123      6.23785     10.10298        -0.139885     -0.119995     -0.316293
