# total energy = -183.80337590 eV
 
CRYSTAL
PRIMVEC
-0.003336 6.248551 6.271790 
6.166584 0.019565 6.248847 
4.108681 4.147609 0.015557 
PRIMCOORD
36 1
Li	      2.06639      8.23895      6.19557        -0.121168      0.093442     -0.104903
Li	      2.03423      6.29364      8.19894         0.066937     -0.025388      0.096988
Li	      6.23678      8.28984     10.41577         0.065466      0.086635      0.022886
Li	      2.09027      4.12088      2.21583        -0.168654     -0.003806     -0.032553
Li	      4.02437      4.19609      4.15496        -0.002700      0.066872      0.201886
Li	      4.12644      8.26244      4.24900        -0.001766      0.000116     -0.032204
Li	      2.07215      6.30836      4.24478         0.016025     -0.057503      0.014127
Li	      1.96166      4.25902      6.18947         0.209068     -0.158916     -0.045878
Li	      4.02556      6.26394      6.18510         0.109398     -0.207609     -0.070258
Fe	      4.12892      2.13956      6.21981        -0.085628      0.355276      0.158885
Co	      6.14310      4.22181      6.26110         0.209721      0.119686     -0.103134
Cu	      4.23168     10.24802      6.29969        -0.104867      0.192748     -0.113090
Cu	      4.12548      8.33443      8.35694        -0.150135     -0.153729      0.137588
Cu	      8.25447     10.37435     10.49953        -0.394492     -0.040767      0.178912
Cu	      4.13494      6.20371      2.13062        -0.054694      0.184340     -0.160012
Cu	      6.12600      6.23748      4.18486        -0.192155     -0.174565      0.303726
Cu	      6.19111      6.26665      8.38999         0.090371     -0.206760     -0.257734
Ni	      8.19290      8.36661      8.39018         0.084192      0.011005     -0.268954
O	      2.02966      6.26487      6.21879        -0.104369      0.114826      0.080296
O	      4.01896      8.30551      6.41902        -0.134910     -0.213784     -0.113471
O	      4.26077      6.31614      8.48981        -0.096597     -0.082286      0.047978
O	      6.14852      8.16492      8.37228         0.105705      0.166316      0.087348
O	      6.11290      6.22554     10.69888         0.266729     -0.007483     -0.176264
O	      8.21847      8.44370     10.38365        -0.072301      0.129483      0.011334
O	      2.06725      2.06180      2.26080         0.177897     -0.005997     -0.198296
O	      4.14869      4.03926      1.90322        -0.040290      0.282762      0.205968
O	      4.11949      2.04969      4.20492         0.100983     -0.331940     -0.339170
O	      6.20082      4.27088      4.37328         0.190779     -0.039720     -0.654524
O	      6.11600      2.29570      6.40870         0.179922     -0.389567      0.286249
O	      8.03732      4.25419      6.20576         0.854700      0.039332     -0.005136
O	      2.04109      3.94975      4.20018         0.008377      0.192969     -0.090713
O	      4.12751      6.19672      4.01629        -0.059298     -0.061434     -0.178592
O	      4.27786      4.15022      6.28302        -0.844358     -0.025031      0.132045
O	      6.17314      6.14060      6.11027        -0.005947      0.256155      0.127323
O	      6.15283      4.35828      8.13847        -0.119579     -0.093629      0.637200
O	      8.13025      6.27788      8.27414         0.017637     -0.012048      0.214145
