# total energy = -102.98041905 eV
 
CRYSTAL
PRIMVEC
0.001110 2.112639 2.119177 
6.105842 -0.008320 -2.108121 
-2.050335 6.332682 -4.233961 
PRIMCOORD
16 1
Li	      3.96343      8.31740     -4.15856         0.044156      0.024755      0.000711
Li	      2.12734      2.22839     -0.06008        -0.040143     -0.026548      0.002178
Li	      2.15344      4.27183     -2.15199         0.016710     -0.009885     -0.004781
Li	      3.93579      4.16098     -4.18621        -0.014302      0.010403      0.005685
Ti	      0.06627      4.23354      0.09259         0.175813     -0.131593      0.160235
Ti	     -0.08132      6.31870     -2.20333        -0.182666      0.133537     -0.169365
Ni	      4.00347      2.09178     -2.08164        -0.033218     -0.015708      0.021507
Ni	      2.08607      6.34106     -4.25601         0.032270      0.013230     -0.020472
O	      4.19774      4.17830     -2.05356         0.109878      0.125027     -0.101908
O	      4.07041      2.10622      0.00813         0.000010      0.003961     -0.005777
O	      1.89272      6.36717     -2.16441        -0.109942     -0.128302      0.101512
O	      1.93335      2.14491     -2.11631        -0.351932     -0.000106     -0.002490
O	      4.15598      6.28812     -4.22128         0.357214     -0.003047      0.008534
O	     -0.05744      6.17209     -4.12261        -0.068284     -0.118171      0.195219
O	     -0.00836      4.22079     -2.11354         0.001067      0.000474     -0.006098
O	      0.04139      2.26801     -0.10718         0.063370      0.121974     -0.184691
