# total energy = -183.64007556 eV
 
CRYSTAL
PRIMVEC
0.016020 6.032585 6.133028 
6.352877 -0.014019 6.163061 
4.231444 4.037571 -0.004676 
PRIMCOORD
36 1
Li	      2.19402      8.01149      6.16629        -0.042287      0.101355      0.010469
Li	      4.18998      8.04055      8.11790        -0.100683      0.015571      0.008206
Li	      8.47126     10.01433     10.24042        -0.079746     -0.020811      0.126524
Li	      0.12445      2.00894      2.03858         0.052557      0.003516     -0.001981
Li	      2.09772      3.97392      2.05899        -0.070837     -0.033807     -0.081752
Li	      2.12553      2.06478      4.01491        -0.025844      0.042360     -0.042275
Li	     10.55357      8.03015     10.25942         0.028282     -0.006775     -0.158111
Li	      6.22114      8.04319      6.08470         0.035174     -0.064156     -0.116590
Li	      8.44303      8.06059      8.23482         0.134031      0.037385     -0.084612
Fe	      8.50056      6.02292     10.14629         0.051802     -0.251690      0.071027
Co	      6.41835      4.03679      6.23296        -0.483052     -0.237021     -0.705458
Cu	      2.13765      6.03617      8.15194        -0.017788     -0.090151     -0.163315
Cu	      6.34721      2.01441      4.12379         0.177660      0.175983      0.181304
Cu	      4.27516      4.04780      4.07258         0.079061      0.061590      0.020627
Cu	      8.49074      6.05285      6.21673         0.027225      0.059914      0.347318
Cu	      4.19243      6.09269      6.13795         0.055693     -0.383851      0.026791
Cu	      6.30512      6.06551      8.21846         0.057090     -0.370850     -0.149264
Cu	      4.24749      9.96917      6.13948        -0.448596     -0.096495      0.183532
O	      1.94785      5.99226      5.86848         0.057690     -0.029874      0.589977
O	      4.24084      7.97610      6.08450        -0.005499      0.333248     -0.021021
O	      4.00807      6.04170      8.01204         0.304888      0.012933      0.229282
O	      6.35109      8.09816      8.27801        -0.080268     -0.292188      0.021097
O	      6.31391      6.04923     10.22567         0.030544     -0.140473     -0.417320
O	      8.37963      7.91618     10.22565        -0.273010      0.493532      0.050422
O	      2.12309      1.85526      2.06434        -0.000768      0.243983      0.007452
O	      4.45654      4.02357      2.02721        -0.173225     -0.049961     -0.055713
O	      4.32086      2.09275      4.23052         0.217113     -0.037479     -0.095367
O	      6.32310      3.98043      4.33694         0.039856      0.151251     -0.032821
O	      6.25743      2.10120      6.14166        -0.079485     -0.014287     -0.059378
O	      8.32940      4.08383      6.17361         0.747153     -0.057574      0.033194
O	      2.28897      4.12408      4.03325        -0.044361     -0.355733     -0.000754
O	      4.23401      6.02654      4.24200         0.019096      0.004084     -0.179204
O	      4.47905      4.08226      6.12351        -0.188002      0.053345      0.228111
O	      6.51209      5.96997      6.26221        -0.027568      0.208204      0.066942
O	      6.33966      4.10740      8.05978         0.060604      0.473410      0.880012
O	      8.59150      6.03883      8.29584        -0.034502      0.061512     -0.717355
