# total energy = -180.50065416 eV
 
CRYSTAL
PRIMVEC
-0.019415 6.146499 6.089067 
6.157216 -0.014173 6.083453 
4.106205 4.095484 -0.010958 
PRIMCOORD
36 1
Li	      6.15529      6.08172     12.09432        -0.062644      0.067927      0.016626
Li	      2.06149      8.17069      6.03957        -0.108557      0.101259      0.002577
Li	      4.15343      6.09664     10.15931         0.120361     -0.098246      0.006597
Li	      6.14102      8.12211     10.15273         0.057603     -0.061104     -0.061469
Li	      8.18019      4.12211      8.12106         0.017810     -0.000186     -0.051938
Li	      2.03804      2.07155      4.03424        -0.034526     -0.009445     -0.054001
Li	      8.15837      6.13828     10.13977        -0.081249      0.063935      0.009742
Li	      4.04810      6.19250      6.08744         0.026923     -0.098777      0.091426
Li	      6.19976      6.11443      8.19067        -0.008234      0.028895     -0.005984
Fe	      6.21562      4.15390      6.02507        -0.032760     -0.143937      0.366280
Co	      6.12651     10.22086      8.09535        -0.146871      0.005905      0.565388
Ni	      6.17843      2.04868      8.08428         0.205564     -0.154282     -0.198535
Ni	      4.06227      2.01646      2.03817        -0.013653     -0.071441     -0.025000
Ni	      4.05791      4.13342      4.05082         0.165362     -0.097852     -0.239854
Ni	      4.11350      2.02701      6.04922         0.057725     -0.072532      0.081195
Ni	     -0.00406      4.11831      4.07193        -0.128240      0.114892     -0.260347
Ni	      6.11765      8.17860      6.08335        -0.336660      0.318350      0.171275
Ni	      8.20790      8.20197      8.14867        -0.127030      0.181383      0.038289
O	      6.15884      6.00654     10.13460         0.023436      0.028024      0.052852
O	      2.00468      1.88531      1.99595         0.021371      0.018021      0.027354
O	      4.22449      4.05443      2.05494        -0.240072     -0.039716      0.097456
O	      4.09346      2.14556      4.09068        -0.015083      0.313020     -0.125007
O	      6.06621      4.08503      4.02557        -0.499788      0.028048     -0.213163
O	      6.12222      2.16903      6.15361         0.086669     -0.252710     -0.129613
O	      8.06523      4.12673      6.07136         0.549681     -0.132157     -0.082661
O	      2.00978      4.10924      4.13888         0.453659      0.063889     -0.344020
O	      4.08176      6.18029      3.89443         0.003563     -0.383435      0.250281
O	      4.15493      4.10639      6.10352        -0.463480      0.132902     -0.279148
O	      6.19957      6.09220      6.11356        -0.112116      0.496156      0.019647
O	      6.14097      4.08434      8.12210         0.123002      0.157296     -0.063775
O	      8.34011      6.19132      7.97108        -0.097336     -0.050747      0.116968
O	      2.01448      6.05931      6.28401         0.072434     -0.432392     -0.492814
O	      4.13869      8.14432      6.05470         0.349976     -0.010254      0.245623
O	      3.86434      6.15481      8.16307         0.292602      0.014186     -0.089245
O	      6.13080      8.27539      8.06817        -0.105647     -0.019086      0.335905
O	      8.32920      8.15670     10.07996        -0.013796     -0.005788      0.221090
