# total energy = -184.80255419 eV
 
CRYSTAL
PRIMVEC
-0.004925 6.182694 6.122069 
6.199414 -0.001466 6.118679 
4.128139 4.114879 0.003743 
PRIMCOORD
36 1
Li	      6.15128      6.18501     12.14383         0.038520     -0.064597      0.012895
Li	      4.20048      8.22833      8.22630        -0.016999     -0.022393     -0.059517
Li	      8.33286     10.24650     10.25907         0.057032     -0.057802     -0.036306
Li	      6.22893      8.18684     10.19419         0.119644     -0.066525      0.050625
Li	      4.15448      2.00542      6.07981         0.031492     -0.018628     -0.036628
Li	      6.24252      4.09358      6.12499        -0.009039     -0.059469      0.009804
Li	      6.11266      4.23416     10.18387        -0.071925      0.035368      0.071401
Li	      8.15321      6.22535     10.14939        -0.072925      0.081529      0.098077
Li	      2.04920      4.14002      6.11408        -0.027754      0.077054      0.034351
Fe	      4.12245      6.20944      6.13694        -0.201831     -0.025032     -0.102902
Co	      6.21367      2.05781      8.12546        -0.915354      0.208924     -0.750430
Co	      6.19006      6.17397      4.11093         0.361672      0.145816      0.668717
Cu	      6.19698     10.25619      8.19080        -0.124575     -0.004715     -0.208234
Cu	      6.19224      6.26285      8.19925        -0.130926     -0.093450     -0.307068
Ni	      8.26373      8.24084     12.17886         0.204362     -0.073899     -0.163704
Ni	      8.26211      4.12647      8.12740         0.097797     -0.067707     -0.074053
Ni	      4.11047      4.09283      4.09959         0.110400      0.004417      0.301832
Ni	      8.25382      8.21865      8.21497         0.098865      0.078328     -0.122221
O	      6.24133      8.28974      8.17865        -0.151032     -0.091777      0.007431
O	      6.19558      6.19660     10.04882         0.045191     -0.021725     -0.100375
O	      1.95578      2.04186      2.17438         0.843215      0.020544     -0.813404
O	      4.16787      4.27399      2.04644        -0.125578     -0.699602     -0.097349
O	      3.97522      2.19607      4.13004        -0.104614     -0.369961     -0.045816
O	      6.04971      4.22019      4.05192         0.216135      0.127179      0.104725
O	      6.34912      2.03521      6.29038        -0.122972     -0.034970     -0.572424
O	      8.28889      3.93884      6.14311        -0.016877      0.388752      0.040721
O	      2.20210      3.99417      4.04556        -0.413610     -0.036986     -0.023051
O	      4.21742      6.05641      3.99525         0.162356      0.150744      0.666408
O	      4.11024      4.31858      6.17106        -0.017761     -0.426049      0.013536
O	      6.04008      6.21869      6.11883         0.657414     -0.002465      0.623863
O	      6.19602      3.91429      8.19694         0.050638      0.703356      0.090076
O	      8.41490      6.16868      8.06509        -0.472603     -0.134241      0.265183
O	      2.16317      6.29210      6.17413        -0.397451     -0.134191     -0.013958
O	      4.01387      8.09244      6.09568         0.110138      0.455532      0.047276
O	      4.06945      6.15870      8.15879         0.229121      0.051864      0.267439
O	      8.24478      8.22537     10.17642        -0.040166     -0.023224      0.153079
