# total energy = -185.40013317 eV
 
CRYSTAL
PRIMVEC
-0.024327 6.213177 6.283965 
6.158154 0.046843 6.212958 
4.130513 4.119812 0.006126 
PRIMCOORD
36 1
Li	      0.02178      6.16301      6.26829        -0.025839      0.077693     -0.008436
Li	      8.26089      8.25846     12.37432        -0.123896      0.160992     -0.061070
Li	      2.08362      6.21442      8.32419        -0.008144      0.063310      0.064095
Li	      8.21001     10.30299     10.37724        -0.011506     -0.006119     -0.008795
Li	      4.12481      4.18795      4.17316        -0.011601      0.004454     -0.040690
Li	      4.05449      8.24980      4.25720         0.028261     -0.011043     -0.048671
Li	      8.18914      6.31850     10.48185         0.026573      0.021887     -0.002663
Li	      4.03141      6.26015      6.24910         0.075127     -0.071880     -0.058536
Li	      8.20865      8.36482      8.40780        -0.012094      0.026892      0.096607
Fe	      4.12315      2.10819      6.20137        -0.225613     -0.304460     -0.385563
Co	      2.07134      4.12072      2.13373         0.068377     -0.220988      0.302760
Co	      6.15479      6.18907      4.13579         0.122374      0.163480      0.013193
Cu	      4.07979      8.26625      8.32886        -0.226173      0.199561      0.270525
Cu	      2.01203      4.25318      6.28717         0.209587     -0.268906     -0.421747
Cu	      6.10764      6.20684      8.43025         0.073327      0.034252      0.129708
Ni	      6.22074      8.30678     10.42424        -0.208070      0.165959      0.127036
Ni	      4.12022      6.16487      2.11798         0.146156     -0.070652      0.230695
Ni	      6.13467      4.17810      6.21532         0.058763      0.121054     -0.229704
O	      2.05716      6.14117      6.28779        -0.106142     -0.522018      0.046225
O	      4.19648      8.29178      6.34229         0.545594      0.149448     -0.053365
O	      4.18347      6.29621      8.32022         0.303162     -0.109596      0.002814
O	      6.07442      8.22385      8.38876         0.245397     -0.098426      0.174073
O	      6.14816      6.32622     10.36420        -0.031115     -0.264841      0.045507
O	      8.14981      8.31951     10.40176         0.161297     -0.055480      0.076445
O	      2.07103      2.16553      2.19550        -0.015879      0.100236     -0.031374
O	      3.91605      4.11042      2.09894        -0.061097     -0.087612     -0.084136
O	      4.01710      2.07643      4.17270         0.299211      0.007370     -0.061186
O	      6.17524      4.27867      4.19156        -0.024581     -0.407081      0.096018
O	      6.06790      2.14972      6.22334         0.361288     -0.019087      0.184625
O	      8.17839      4.25393      6.42315        -0.041261     -0.343658      0.118617
O	      2.04987      3.96232      4.02337        -0.039102      0.260376     -0.367021
O	      4.32109      6.19733      4.09909        -0.426567      0.045435     -0.257363
O	      4.03963      4.03831      6.30153        -0.524270      0.641276      0.069158
O	      6.23115      6.26007      6.09363        -0.263488      0.664177      0.001857
O	      6.30516      4.20563      8.28819        -0.063317     -0.019217     -0.037026
O	      8.20093      6.07835      8.29298        -0.274738     -0.026787      0.107388
