# total energy = -187.30395188 eV
 
CRYSTAL
PRIMVEC
0.020110 6.220523 6.220958 
6.184713 0.020624 6.220471 
4.105814 4.129460 0.031354 
PRIMCOORD
36 1
Li	      6.14404      0.06564      6.16915        -0.065893      0.108160     -0.055448
Li	      6.21183      8.28006     10.39978         0.064331     -0.041831      0.025869
Li	      8.21043      4.19470      8.35900        -0.065384      0.068575      0.103414
Li	      2.07579      2.07903      4.14217        -0.024187      0.021809     -0.096788
Li	      8.25863      6.17798      6.25306         0.117830     -0.123244      0.070959
Li	      6.19557      4.15436      6.24910         0.054382     -0.063931      0.069584
Li	      6.17334      4.20045     10.31937        -0.073966      0.009169     -0.106247
Li	      8.24311      6.23157     10.33522        -0.001194      0.023792     -0.150565
Li	      8.27058      8.24925      8.37575         0.021789     -0.077891      0.141850
Fe	      2.07703      4.13956      6.14879        -0.036576      0.154648     -0.009421
Co	      8.22313      2.10505      6.22731        -0.124182      0.056697     -0.054462
Co	      6.08246      2.24810      8.29298         0.310497     -0.381908     -0.166535
Cu	      6.16742      4.13738      2.12638        -0.117295      0.060956      0.001714
Cu	      4.09883      2.08728      2.11083        -0.073082      0.113750      0.113793
Cu	      8.22488      4.12798      4.21570        -0.023066     -0.095186      0.298593
Cu	      4.13583      4.11612      4.16570         0.020322      0.078844     -0.055441
Cu	      4.14158      6.21597      6.19261        -0.025108     -0.007806     -0.090875
Cu	      6.26634      6.15449      8.34239         0.003661      0.129795      0.080054
O	      2.14010      6.28444      6.29498         0.140947     -0.066050     -0.006061
O	      4.06827      8.22636      6.31399         0.077236     -0.118058     -0.054315
O	      4.09343      6.27771      8.45842         0.138936     -0.110907      0.030984
O	      6.13588      8.34507      8.23725         0.174934     -0.151171     -0.108947
O	      6.09263      6.22671     10.26276         0.072535      0.033460     -0.106139
O	      8.22572      8.35316     10.56766        -0.063195     -0.107208      0.004786
O	      2.09304      2.02937      1.92982        -0.096958      0.186067      0.060989
O	      4.17767      4.09692      2.20935        -0.094638     -0.048748     -0.125418
O	      4.10995      2.05917      4.10017         0.013912      0.042903      0.169394
O	      6.22390      4.14508      4.10724        -0.048996     -0.023889      0.003136
O	      6.31345      2.06639      6.41502         0.082947     -0.034354      0.142258
O	      8.25185      4.00178      6.12962         0.018630     -0.014208     -0.097673
O	      2.11506      4.13247      4.23505        -0.119674     -0.010880      0.050689
O	      4.13696      6.15870      3.94210         0.092053     -0.015306     -0.040713
O	      4.08735      4.22792      6.10852         0.056849      0.174446      0.046934
O	      6.11401      6.27516      6.39490        -0.134214     -0.068511      0.006941
O	      6.19101      4.12703      8.29582        -0.055511      0.260688     -0.001058
O	      8.28137      6.22860      8.28594        -0.218673      0.037331     -0.095835
