# total energy = -182.86334039 eV
 
CRYSTAL
PRIMVEC
-0.003784 6.188125 6.091459 
6.208618 0.000147 6.087424 
4.130961 4.114663 0.008361 
PRIMCOORD
36 1
Li	      6.23857      6.14936     12.10473        -0.031187     -0.082841     -0.015327
Li	      4.18095      6.19333     10.13588         0.060343     -0.029263     -0.028922
Li	      4.13993      4.13102      4.08524        -0.109861     -0.001105      0.039873
Li	      6.19778      4.16115      6.07789        -0.056329      0.037741      0.142014
Li	      4.14563      8.26398      4.14167         0.051409      0.011654     -0.021791
Li	      2.02265      6.17145      4.13470        -0.009412     -0.043529     -0.024775
Li	      6.16960      8.21674      6.06457         0.091125     -0.025844     -0.013250
Li	      4.14066      6.20829      6.07256        -0.035434     -0.048010      0.095629
Li	      6.12967      6.24127      8.12755        -0.005568     -0.002636     -0.044881
Fe	      8.26892      4.15826      8.16205        -0.163204      0.039032     -0.061675
Co	      4.13523      6.16896      2.06663         0.147223      0.227464      0.212056
Co	      4.14876      4.20323      8.11973         0.091775     -0.178847     -0.175517
Ni	      8.28633      8.23125     12.12747         0.091073      0.213922      0.087786
Ni	      2.07322      6.17264      8.09801         0.056895      0.016114     -0.162292
Ni	      4.18590      8.18629      8.08652        -0.184822      0.121326     -0.027334
Ni	      6.18271      8.22378     10.15331         0.178019     -0.480157     -0.238604
Ni	      6.18626      6.13394      4.12478        -0.015061      0.133981     -0.039236
Ni	      8.25831      6.16065      6.07040         0.008131      0.174799      0.251277
O	      6.20485      6.34178     10.12891         0.007586      0.236607      0.047626
O	      1.98392      2.07225      2.04947         0.789230      0.006177      0.207853
O	      4.10761      4.24568      2.02655         0.183535     -0.448557     -0.009828
O	      4.17784      2.05263      4.03712         0.134291      0.144645      0.052188
O	      6.19084      4.05287      3.93037         0.029252      0.017924      0.254298
O	      6.24624      2.07666      6.20056         0.070347     -0.016861     -0.341374
O	      8.25689      4.06840      6.26297         0.014350     -0.089637     -0.546870
O	      2.06875      4.06590      3.91540         0.039234     -0.059049      0.724849
O	      4.18929      6.14662      3.90116        -0.085762     -0.017215      0.227235
O	      4.14382      4.06611      6.31346        -0.017499      0.139089      0.007923
O	      6.28126      6.16646      6.04685        -0.093158     -0.047408      0.044912
O	      6.22249      3.95358      8.15309        -0.149115      0.319511     -0.013869
O	      8.43839      6.14958      8.10852        -0.984538      0.100034     -0.007458
O	      2.06263      6.28628      6.21050         0.021146     -0.035149     -0.219780
O	      4.00822      8.24632      6.14566         0.042090      0.010142     -0.317487
O	      4.04502      6.15000      8.10042        -0.000440     -0.268344      0.017214
O	      6.19126      8.31552      8.13869         0.156282     -0.167280      0.049302
O	      8.18800      8.24231     10.02555        -0.321945      0.091570     -0.151767
