# total energy = -187.34307456 eV
 
CRYSTAL
PRIMVEC
-0.008927 6.222240 6.144523 
6.102661 -0.011763 6.147053 
4.059645 4.140992 0.001073 
PRIMCOORD
36 1
Li	      4.01964      4.07005      0.04513         0.000905     -0.046778      0.005470
Li	      8.17132      2.11561      6.14880         0.013982     -0.072061      0.056852
Li	      4.00790      8.33170      8.08479        -0.053347      0.009956     -0.047243
Li	      8.15208     10.29044     10.33030         0.068596     -0.050163     -0.038668
Li	      4.06133      6.18737      2.04575         0.016933      0.010311      0.034123
Li	      8.15672      4.11857      8.12206         0.016566     -0.008539      0.037918
Li	      8.15258      6.13123      6.17482        -0.020539      0.015519      0.015235
Li	      1.95685      4.21980      6.11604        -0.023673      0.040580      0.069600
Li	      4.02609      6.25779      6.14861        -0.004447      0.036446     -0.002955
Fe	      6.05142      6.19657      8.17611        -0.022682      0.182663     -0.159979
Co	      6.09454      2.07123      4.12650        -0.099045     -0.557999      0.494150
Co	      2.06370      2.06474      4.09424        -0.001407      0.195925      0.367407
Co	      4.08005      4.14963      4.06739        -0.048763      0.007083     -0.093049
Cu	      6.15022      4.12026      6.13783        -0.049516      0.198683      0.104736
Ni	      2.01973      6.27114      8.10854         0.122382      0.014591     -0.152654
Ni	      4.01913      8.32014      4.18778         0.000612     -0.047730      0.065543
Ni	      2.02402      6.20720      4.16105        -0.000525     -0.047337      0.056919
Ni	      4.05318      4.13114      8.15451        -0.049979     -0.049199     -0.056513
O	      4.05507      8.29110      6.07426        -0.013208     -0.020656      0.130053
O	      2.05240      2.02488      2.25353        -0.022114      0.016115     -0.740726
O	      4.10553      4.17096      2.19546        -0.101747     -0.031017      0.102021
O	      4.09521      2.27232      4.08814        -0.234394      0.025517     -0.072204
O	      6.00983      4.12477      3.90763         0.059607      0.561714      0.082946
O	      6.10481      2.22699      5.96536         0.041203     -0.055946     -0.035172
O	      7.98958      4.12175      6.14296         0.156266      0.015766      0.022041
O	      2.14318      4.09726      4.13740         0.052392     -0.224491      0.014940
O	      4.11239      6.07860      4.10690         0.117364     -0.056996     -0.045444
O	      4.24199      4.13136      6.00025        -0.061307     -0.030837     -0.110239
O	      6.13278      6.05163      6.05586         0.015103     -0.094992      0.405303
O	      6.05395      4.23546      8.37405         0.096685     -0.299681     -0.224614
O	      7.99391      6.25701      8.24118         0.318345     -0.045274     -0.074456
O	      2.00165      6.21451      6.19116        -0.019352      0.066918     -0.013065
O	      4.10637      6.16443      8.17361        -0.324501     -0.015332      0.034782
O	      6.07706      8.22609      8.32310        -0.015650      0.325020     -0.366879
O	      6.09610      6.26424     10.23979        -0.157014     -0.125388      0.068352
O	      8.05567      8.20074     10.22028         0.226270      0.157605      0.065468
