# total energy = -188.24699264 eV
 
CRYSTAL
PRIMVEC
-0.000738 6.196869 6.249729 
6.062003 -0.018860 6.267310 
4.020007 4.122750 0.008002 
PRIMCOORD
36 1
Li	      6.05224      0.04422      6.28400        -0.031105      0.013277     -0.097003
Li	      8.07942      8.23569     12.47046        -0.014386      0.060329      0.052193
Li	      3.98775      2.07962      2.04489         0.036632     -0.036864      0.047518
Li	      8.04180      4.08367      4.23430         0.171144      0.036226     -0.025544
Li	      4.03582      6.13571      2.10399        -0.140755     -0.011741      0.147657
Li	      4.04724      4.13371      4.11517        -0.032341      0.086490     -0.164207
Li	      8.08514      6.09764      6.23194        -0.029756     -0.093721      0.143844
Li	      4.03553      8.22033      4.22070         0.049126      0.047866     -0.113132
Li	      1.98671      6.20952      4.21646        -0.091452     -0.048957     -0.106512
Fe	      2.11131      4.05641      2.06379        -0.407358      0.549576     -0.041564
Co	      5.97872      2.04524      4.22579        -0.499543     -0.618760     -0.270064
Co	      2.10002      2.06134      4.15391        -0.289391     -0.015065      0.017101
Co	      6.06620      6.21433      8.42158        -0.573608      0.096234     -0.732500
Cu	      2.00869      4.13619      6.18927        -0.079067     -0.141075      0.031051
Cu	      8.07253      8.24441      8.40812         0.265654     -0.097822      0.043621
Ni	      5.99216      4.14367      2.08095         0.007370      0.013092      0.025608
Ni	      6.06196      4.08479      6.24217         0.180491      0.120084      0.149962
Ni	      4.02711      6.20514      6.23667         0.283070      0.114503      0.127195
O	      4.10076      8.07305      6.22511         0.188232      0.279920     -0.003485
O	      7.87950      8.23536     10.36507         0.551416      0.038949     -0.477728
O	      1.97618      2.05051      2.17179         0.149711      0.063128      0.058966
O	      3.95947      4.16253      2.02729         0.274695     -0.100630      0.036268
O	      4.02470      2.03298      4.19891        -0.206930      0.123914     -0.004004
O	      6.04752      4.04369      4.15578        -0.066969      0.269576      0.167619
O	      6.04149      2.09271      6.04707         0.096730     -0.095719      0.321292
O	      8.05256      4.06913      6.46752         0.005470     -0.076069     -0.457794
O	      2.05394      4.08875      3.95279         0.104149     -0.153753      0.590235
O	      4.25674      6.17714      4.27923        -0.035079     -0.037740      0.042254
O	      3.99864      4.29800      6.37290        -0.283789     -0.381859      0.344000
O	      6.05123      6.25119      6.39711         0.268275      0.295537     -0.409204
O	      6.09449      4.29614      8.33364         0.055650     -0.109581     -0.032996
O	      7.90992      6.21657      8.35778         0.864337      0.141359      0.216612
O	      2.04645      6.07944      6.30600        -0.385864     -0.134371     -0.147578
O	      4.13992      6.15310      8.26534        -0.342619     -0.222717      0.048999
O	      6.03839      8.17783      8.56009        -0.078591     -0.069691     -0.193807
O	      5.99013      6.29317     10.26837         0.036453      0.096076      0.665127
