# total energy = -188.92676545 eV
 
CRYSTAL
PRIMVEC
0.036217 6.091053 6.434491 
6.160328 0.040817 6.431378 
4.093875 4.044886 0.041405 
PRIMCOORD
36 1
Li	      2.08658      2.03873      0.11410        -0.110733      0.046061      0.000771
Li	      2.12132      6.15962      8.50380         0.008044     -0.146395      0.087460
Li	      4.16066      6.12629     10.69141        -0.071919      0.014217      0.021008
Li	      4.09959      6.08634      2.20897         0.067757     -0.032640     -0.015093
Li	      2.12741      4.06056      2.12372        -0.021960     -0.014357     -0.079121
Li	      4.09136      4.07756      4.23625         0.086987     -0.054356     -0.055338
Li	      8.18677      6.10053      6.59204         0.079330     -0.050832     -0.095714
Li	      4.07552      6.06893      6.54339         0.028157      0.036949     -0.010471
Li	      6.14673      6.05379      8.61748         0.023202      0.141861      0.052355
Fe	      4.06320      4.02550      0.13158         0.163486      0.396168     -0.267476
Co	      6.08878      2.09702      4.32265         0.489086     -0.079428      0.616339
Co	      2.06880      2.04548      4.23297        -0.081628      0.138975     -0.168433
Co	      4.12337      4.10391      8.53981        -0.599131     -0.127250      0.796940
Cu	      6.14362      4.12968      6.41301         0.155678     -0.262705     -0.206846
Cu	      6.19015      4.09775     10.67957        -0.043506      0.109846     -0.079630
Cu	      6.14100      8.07043      6.51422         0.054891     -0.052468      0.041980
Ni	      4.13591      8.07825      8.63377         0.014319     -0.091166      0.149462
Ni	      2.11904      6.04583      4.25977        -0.075789      0.117273     -0.021334
O	      1.97654      6.00156      6.35606         0.202185     -0.137294      0.036382
O	      4.25061      8.08262      6.61224        -0.102095     -0.070176     -0.121206
O	      4.12450      5.96993      8.59876         0.137454      0.040946     -0.115626
O	      2.08983      2.01190      2.37257        -0.024117      0.066683      0.166841
O	      4.14971      4.07164      1.96636        -0.024707      0.046957      0.333498
O	      4.05752      2.08672      4.22279         0.420850      0.040075     -0.169539
O	      6.13870      4.14452      4.50883        -0.022493     -0.517893      0.107221
O	      6.21235      2.16438      6.23866        -0.124423     -0.140278     -0.239402
O	      8.42630      4.06552      6.51998        -0.495021     -0.032284     -0.009285
O	      1.98437      3.99788      4.19637        -0.094491     -0.256376     -0.109941
O	      4.22416      6.16637      4.27481         0.124320      0.047351     -0.082879
O	      3.89185      4.07157      6.64660         0.136035      0.037752     -0.123890
O	      6.17015      6.09570      6.20062        -0.025725      0.128380      0.086642
O	      5.98831      4.09115      8.28481        -0.005575      0.006003      0.107378
O	      8.16051      6.26459      8.67833         0.194694      0.025617     -0.154205
O	      6.26833      8.13500      8.91430        -0.005224     -0.016849     -0.248972
O	      6.23691      6.08866     10.94394        -0.115471      0.516996     -0.163186
O	      8.33951      8.10163     10.55290        -0.342467      0.124637     -0.066690
