# total energy = -188.69418222 eV
 
CRYSTAL
PRIMVEC
0.014757 6.025445 6.437980 
6.132030 0.017693 6.436115 
4.106650 4.033846 -0.007243 
PRIMCOORD
36 1
Li	      6.20664      6.05180     12.77974        -0.068196      0.018120     -0.027737
Li	      8.08139      1.99501      6.43896         0.002724      0.045819      0.052925
Li	      2.01916      0.03837      2.09640         0.125620      0.029537      0.025307
Li	      4.10127      0.02248      4.30074        -0.099729     -0.041701     -0.000208
Li	      4.12835      6.04244      2.18066        -0.024815      0.064300      0.054140
Li	      6.12345      6.04169      4.28878         0.045311      0.017264     -0.045203
Li	      6.16158      3.98723      6.33705         0.095188      0.026288     -0.018684
Li	      2.04361      6.02831      4.40869         0.012823      0.019012     -0.084965
Li	      6.15961      6.03612      8.68517        -0.024673      0.022760      0.013665
Fe	      8.19540      4.05640      8.50187        -0.262160      0.147717      0.078844
Co	      4.13406      8.00476      8.60330        -0.173112     -0.168438      0.169296
Co	      4.12924      4.09656      4.19793         0.250069     -0.681849     -0.658709
Co	      8.18895      8.13167      8.66681         0.209354     -0.901634      0.052960
Cu	      6.14058      1.98745      4.35353         0.020768      0.268035     -0.185789
Cu	      8.18835      6.04150      6.40995         0.008110     -0.263706      0.166954
Cu	      6.12277      4.06346     10.73796         0.048498      0.013688     -0.066897
Cu	      2.05663      4.04927      6.43384        -0.077330     -0.038397      0.013186
Ni	      4.12349      6.03523      6.39345        -0.001418      0.040480      0.287722
O	      2.12190      5.88661      6.45472        -0.158799      0.169058     -0.051702
O	      4.29907      8.04090      6.29722        -0.105460      0.106353     -0.115069
O	      6.12549      6.02437     10.74873         0.017153     -0.041953      0.063195
O	      8.14059      8.06240     10.64581         0.030855      0.056518     -0.541728
O	      2.22137      2.09051      2.02859         0.114512     -0.485052     -0.044713
O	      4.10376      3.88700      2.13366         0.224475      0.151687      1.068095
O	      4.11548      2.10513      4.34038         0.225733      0.453356     -0.056300
O	      5.99489      4.03813      4.35764        -0.332246     -0.257885     -0.103823
O	      6.06788      2.00513      6.26451         0.034844      0.022220     -0.093864
O	      8.11153      4.09763      6.63939        -0.018262     -0.009835     -0.609557
O	      2.21858      4.05763      3.96033        -0.039590      0.053810      0.584793
O	      4.13800      5.97928      4.34575         0.010603      0.058626      0.051876
O	      3.93461      4.00467      6.56679         0.217069      0.175931      0.185552
O	      6.17882      6.22258      6.41097         0.044226     -0.062972     -0.019297
O	      6.12536      4.01979      8.77530        -0.635663      0.025009      0.082201
O	      8.23753      6.08752      8.42725        -0.000146      0.606014      0.071462
O	      4.08956      6.01423      8.53491        -0.030005      0.350326     -0.368752
O	      6.09685      8.02776      8.85835         0.313672      0.011495      0.070822
