# total energy = -189.76835695 eV
 
CRYSTAL
PRIMVEC
0.016520 6.155303 6.149416 
6.186033 0.003468 6.162436 
4.115447 4.103697 0.010766 
PRIMCOORD
36 1
Li	      2.07345      2.06289      0.02909        -0.035411      0.032080      0.060596
Li	      2.12466      6.11762      8.19865        -0.009055      0.011113      0.081149
Li	      4.16384      8.16562      8.19314         0.026934     -0.023060      0.085811
Li	      8.19630      4.14523      4.18065        -0.077920      0.059744     -0.007734
Li	      4.11985      4.06105      4.16908         0.105731     -0.090470      0.000404
Li	      8.21967      6.13415      6.14957         0.036758     -0.028306     -0.046691
Li	      6.17385      4.14046      6.16347         0.000559     -0.001951     -0.099410
Li	      6.20338      8.20988      6.22092         0.025667     -0.017558      0.048143
Li	      6.14941      6.21390      8.14514        -0.043490      0.032746     -0.033301
Fe	      6.07069      2.15748      4.12558         0.184561      0.024748      0.103243
Co	      0.01208      2.04245      2.03686        -0.019386     -0.084649     -0.031777
Co	      6.23696      6.06609      4.14283         0.350672     -0.292497     -0.114505
Co	      2.07571      6.14569      4.10341         0.076425     -0.001275     -0.099727
Cu	      4.14962     10.24327      6.18350         0.125093      0.088237      0.097198
Cu	      8.25688      4.10990      8.17863        -0.119901     -0.046275      0.073468
Cu	     10.30442      8.23711     10.29529        -0.081936      0.040500     -0.009612
Cu	      4.12443      6.14809      6.17732         0.107153      0.032132      0.112803
Cu	      4.10485      4.12200      8.17055         0.029868     -0.113903      0.208097
O	      2.09800      6.15090      6.00747        -0.088968      0.037355     -0.064214
O	      4.13222      8.19176      6.08626        -0.033338     -0.208220      0.058129
O	      4.15944      6.08996      8.11463         0.048583      0.209475      0.152870
O	      6.25738      8.19015      8.33741        -0.162720     -0.086556     -0.321245
O	      6.33917      6.19075     10.35129         0.002656     -0.025114     -0.087239
O	      1.93584      2.10493      2.21476        -0.107813     -0.170453      0.144378
O	      4.08052      4.24170      1.98214         0.218938      0.091761      0.055261
O	      4.16318      2.05803      4.09660        -0.274917     -0.025600     -0.023093
O	      6.17466      4.08522      4.13659         0.043120      0.177697      0.024541
O	      6.21199      2.00622      6.23316         0.105005      0.044273      0.039817
O	      8.33809      4.08179      6.25227        -0.131937     -0.047756      0.069603
O	      2.01719      4.19491      3.99185        -0.009312      0.148820     -0.069314
O	      4.01829      6.18133      4.01291        -0.175907      0.008256     -0.114231
O	      4.12204      4.19125      6.25968        -0.020827     -0.002556     -0.151996
O	      6.13589      6.18176      5.96805        -0.076023      0.089960     -0.018403
O	      6.18112      3.99068      8.28202        -0.091115      0.004231     -0.154191
O	      8.34979      6.14492      8.29640         0.023520      0.143213      0.014979
O	      8.23629      8.07740     10.17368         0.048734     -0.010143      0.016194
