# total energy = -191.24920009 eV
 
CRYSTAL
PRIMVEC
-0.002570 6.165185 6.063875 
6.207991 -0.025443 6.086700 
4.107529 4.094091 0.013911 
PRIMCOORD
36 1
Li	      2.14616      8.20875      6.09314        -0.044073     -0.014955     -0.167849
Li	      4.12678      8.17818      8.04626         0.103893     -0.040302      0.018722
Li	      4.05329      4.14152      4.22453         0.042262     -0.006640      0.122619
Li	      8.15712      6.19192      6.10046         0.031196      0.075947     -0.054202
Li	      6.09314      4.21656      6.12287        -0.077660     -0.000936     -0.127014
Li	      4.12037      8.15517      4.07113        -0.126291      0.027484      0.066620
Li	      6.14054      8.15494      6.15359         0.047208      0.022066      0.073844
Li	      4.19855      6.15805      6.05956        -0.032700     -0.059931     -0.019284
Li	      6.16135      6.12841      7.95046        -0.027002      0.039955      0.075320
Fe	      6.15146      2.04040      4.09788         0.164500      0.044218     -0.012718
Co	      4.10194     10.19041      6.06367         0.149190      0.088637     -0.002200
Co	      4.16340      6.13944     10.13127         0.061974     -0.076136     -0.189706
Co	      8.24754      4.07649      8.07184        -0.453360     -0.062030      0.248336
Co	      2.08034      6.07636      4.06874        -0.132049      0.326573      0.226588
Cu	      6.16631      6.18948      4.10812         0.034543     -0.089743     -0.043460
Ni	      2.10086      6.15928      8.05817        -0.021976      0.009272     -0.040827
Ni	      6.20561      2.04229      8.06738        -0.048286     -0.044123     -0.047941
Ni	      4.15058      4.11954      8.06241         0.147863     -0.212403      0.242962
O	      6.16160      6.18705      5.91309         0.006507      0.016026      0.323980
O	      2.04797      2.12167      2.19968         0.040386     -0.144908     -0.267176
O	      4.04437      4.14518      1.90020         0.385418     -0.226428      0.002847
O	      4.22479      1.88273      4.06038        -0.244168      0.000204      0.005650
O	      6.34846      4.10188      4.07938         0.094759      0.219294      0.064553
O	      6.23326      1.88060      6.02405         0.038825     -0.150417      0.118657
O	      8.44008      4.05362      6.08972        -0.016054     -0.011301     -0.107980
O	      2.05842      4.12597      3.88336         0.016417     -0.300456      0.032357
O	      3.94088      6.13339      4.01867         0.048975     -0.016653      0.253399
O	      4.10606      4.11719      6.23896         0.078838     -0.086818     -0.785649
O	      6.30265      4.01491      8.05347        -0.076034      0.415282     -0.137064
O	      8.25501      6.02691      8.22376        -0.105825      0.071650     -0.152222
O	      1.89709      6.17205      6.00974        -0.144148     -0.028093     -0.020689
O	      4.10961      8.38302      6.07816         0.015545      0.016853     -0.031158
O	      4.12751      6.09340      8.22533         0.050052      0.373732      0.168429
O	      6.24436      8.22302      8.22625        -0.066670     -0.067561     -0.228162
O	      6.18469      6.15779     10.21830        -0.077278     -0.221739      0.028592
O	      8.18157      8.22429     10.01474         0.135224      0.114380      0.361826
