# total energy = -191.27645094 eV
 
CRYSTAL
PRIMVEC
-0.004715 6.180404 6.091218 
6.168183 -0.004415 6.090860 
4.124866 4.132688 -0.015675 
PRIMCOORD
36 1
Li	     10.26538      4.11708      6.07091        -0.036084      0.107406     -0.172563
Li	      8.23169      4.15679      4.11183         0.051820     -0.014515     -0.046142
Li	      4.11459      6.14192      2.08189        -0.163084      0.089044     -0.042548
Li	      4.13489      4.15724      4.09559         0.064896     -0.012953     -0.016166
Li	      4.10963      2.08149      6.02562        -0.012217     -0.020420      0.049132
Li	      6.18957      4.13032      6.04653         0.019342      0.024428     -0.071919
Li	      4.17210      8.16512      4.10614        -0.079589      0.076519     -0.103161
Li	      2.05794      4.06229      6.01730         0.101062     -0.093101      0.047688
Li	      4.12351      6.21560      6.03383         0.090166     -0.056836      0.020998
Fe	      2.11983      4.10293      2.02079        -0.630215      0.381200     -0.006330
Co	      8.19125      2.07166      6.07512        -0.560152      0.072660     -0.172382
Co	      6.15829      2.10351      4.05144         0.470209     -0.548874      0.248070
Co	      4.20191      4.13822      7.93419         0.064126     -0.033128      0.978903
Co	      6.16464      6.21344      8.07329         0.580920      0.025658      0.860384
Cu	      4.10065      2.07779      2.00035         0.204201     -0.335411      0.239027
Cu	      2.14571      6.12324      4.12362        -0.430461      0.339690     -0.307195
Ni	      6.11795      4.13460      1.98814         0.152144     -0.095485      0.081966
Ni	      6.12003      6.16370      4.15736         0.067789     -0.220888      0.257232
O	      2.02982      6.34090      6.07819        -0.007730      0.123803      0.017355
O	      3.88513      8.26118      6.15207         0.039965     -0.076839      0.477414
O	      1.92085      2.06776      1.97162         0.107465      0.000721     -0.243633
O	      4.06953      4.10373      1.99073         0.088412     -0.581653      0.021127
O	      4.25610      2.04451      3.98190        -0.217253      0.094544     -0.678225
O	      6.20446      4.01333      3.97118        -0.021790      0.225338      0.062445
O	      6.28680      2.06188      5.94507         0.273256      0.008814     -0.007474
O	      8.20698      3.95023      6.13674         0.022624     -0.126251      0.003868
O	      2.05053      4.08637      4.02599        -0.010721      0.115281     -0.016308
O	      4.12438      6.19497      4.05117        -0.175840     -0.102579      0.049501
O	      4.10948      4.09069      6.17896         0.011226      0.144423      0.188451
O	      6.20060      6.19737      6.20549         0.061357      0.072397     -0.626911
O	      6.16236      4.32392      8.17733        -0.593381     -0.067508     -0.306915
O	      8.11116      6.17581      8.17586         0.283658     -0.035023     -0.123210
O	      4.27461      6.16083      8.14660        -0.517204      0.515769     -0.308448
O	      6.29656      8.21448      8.19313         0.289451     -0.011120     -0.454902
O	      6.22943      6.37341      9.99953         0.191759      0.082159      0.075103
O	      8.08494      8.20012     10.21173         0.219874     -0.067274      0.025769
