# total energy = -192.56557032 eV
 
CRYSTAL
PRIMVEC
0.046478 6.136467 6.139604 
6.113593 0.040433 6.145584 
4.098133 4.117167 0.004477 
PRIMCOORD
36 1
Li	      6.01234      0.10923      6.09903         0.082274     -0.006064      0.007713
Li	      4.10978      2.06366      2.10553         0.053962     -0.036071     -0.025210
Li	      4.11825      0.06379      4.15307         0.003485     -0.027764     -0.056923
Li	      4.15444      4.07401      4.06722        -0.001828      0.013497      0.032727
Li	      8.23984      6.10616      6.12319        -0.002352      0.073262      0.015444
Li	      6.18240      4.11632      6.16858        -0.081381      0.013204      0.073236
Li	     10.21195      8.26118     10.23817        -0.028132      0.020640     -0.003290
Li	      8.09244      6.25788     10.18124        -0.000090      0.004897     -0.005431
Li	      6.13725      6.15665      8.28805        -0.063668     -0.004788     -0.019268
Fe	      2.04048      4.10706      6.02837        -0.069759      0.091200      0.076559
Co	      2.09523      6.13716      8.16748         0.072151     -0.168132     -0.007346
Co	      4.11105      6.16743      2.08272        -0.104656     -0.044054     -0.065425
Co	      4.12454      6.14910      6.12185        -0.116206      0.014052      0.073324
Co	      8.18730      8.23236      8.18076        -0.072743      0.162124     -0.058839
Cu	      6.05724      2.06223      4.11147         0.033385      0.124692      0.053117
Cu	      8.17213      4.19741      8.21859        -0.006342      0.134318      0.140728
Cu	      6.20118      6.10987      4.12819         0.066001     -0.097416     -0.058144
Ni	      8.22689      8.27359     12.25226         0.097594     -0.157978      0.055613
O	      8.32782      6.29364      8.17973         0.087203     -0.086534     -0.044847
O	      6.13423      6.34055     10.24303        -0.021674     -0.210432      0.013419
O	      8.01909      8.24425     10.14318         0.122901      0.041195     -0.118924
O	      1.96743      1.92940      2.14165         0.084128      0.037568     -0.167251
O	      4.22045      4.30004      2.05216        -0.153059      0.086568     -0.007212
O	      4.15144      2.07382      4.09485        -0.093923      0.018367      0.025462
O	      6.17085      4.03785      3.94042        -0.039334     -0.040424     -0.073608
O	      6.22667      2.11505      6.37408        -0.136315     -0.011012      0.003761
O	      8.17392      4.06033      6.31873         0.002864      0.194328     -0.000461
O	      2.07932      4.04668      4.07068         0.005576      0.071987     -0.250797
O	      4.20618      6.13598      4.11923        -0.033494     -0.008765     -0.000155
O	      4.05077      4.22307      6.22927         0.140374      0.001404      0.034010
O	      6.05445      6.21460      6.08063         0.012432     -0.094791      0.219011
O	      6.01085      3.97330      8.26656         0.158561     -0.061687      0.044106
O	      2.19206      6.18852      6.20773         0.001655     -0.058544      0.008737
O	      4.13415      8.09742      6.14454         0.030238     -0.042046     -0.056045
O	      4.02880      6.04290      8.03041        -0.002427      0.006460     -0.056095
O	      6.25423      8.33366      8.01512        -0.027401      0.046737      0.198306
