# total energy = -192.25393013 eV
 
CRYSTAL
PRIMVEC
0.061187 6.125293 6.297982 
6.098798 0.046099 6.312448 
4.106948 4.133442 -0.010134 
PRIMCOORD
36 1
Li	      8.13807      2.13899      6.27998         0.009886     -0.033651     -0.011831
Li	      8.22669     10.22589     10.49019        -0.062534     -0.007507      0.020699
Li	      0.04977      2.13442      2.18105        -0.001010      0.056063      0.054478
Li	      6.03930      6.20028      4.19496        -0.005864     -0.030397      0.027452
Li	      4.07229      4.20912      4.24897         0.072619     -0.037227      0.043066
Li	      6.10603      4.10887      6.32233        -0.038209      0.038847     -0.002353
Li	      0.05387      4.02583      4.14627         0.023379      0.037727     -0.047307
Li	      4.11848      6.13682      6.21871         0.001788     -0.030798     -0.017082
Li	      4.20036      4.17951      8.43028         0.054409     -0.025684     -0.028743
Fe	      4.08414      2.04960      6.24595        -0.332978      0.066241      0.170349
Co	      2.09877      0.13244      2.22118        -0.063723     -0.735585     -0.506982
Co	      8.15527      4.15860      8.38607        -0.266849      0.064328      0.044786
Co	      6.16017      8.21811      6.32919         0.325374     -0.196650     -0.083650
Co	      6.15581      6.15956      8.35929         0.156798     -0.391468      0.039185
Cu	      4.11509      4.11285      0.03606        -0.004236      0.034190     -0.108959
Cu	      4.07259      2.08262      2.15964        -0.171342      0.028562      0.113177
Cu	      6.21855      8.22212     10.50427        -0.059866      0.332678     -0.048976
Cu	      8.25602      6.22219     10.45405        -0.047026     -0.076528     -0.020677
O	      2.04493      6.01113      6.59355        -0.119427      0.257307      0.123247
O	      4.33625      8.30294      6.19601        -0.060811      0.042692      0.114906
O	      6.34889      6.24968     10.31880        -0.080759     -0.177781      0.051857
O	      8.18647      8.09447     10.50205         0.071541      0.077926     -0.037588
O	      2.11477      2.13245      2.16174         0.199465      0.210933     -0.062194
O	      3.99935      4.06285      2.05506         0.231917     -0.167720      0.082164
O	      4.11775      2.03023      4.41457         0.022447     -0.026666     -0.701249
O	      6.11592      4.05301      4.04833        -0.030084      0.217512      0.408249
O	      6.06735      2.02081      6.24386         0.267408     -0.068352      0.073144
O	      8.22319      4.16286      6.40408         0.067939     -0.181248      0.047974
O	      2.09571      4.29648      4.01247        -0.005390     -0.132320      0.034470
O	      3.98928      6.18633      4.18638         0.173992      0.001953     -0.011897
O	      3.91942      4.00550      6.34651        -0.027896      0.293938      0.063715
O	      6.13710      6.27000      6.39205        -0.051414      0.050262     -0.023504
O	      6.26160      4.26435      8.34215        -0.094993      0.049883     -0.026873
O	      8.08500      6.06622      8.16892         0.024708      0.107771      0.318803
O	      4.20311      6.24262      8.46470        -0.021467      0.205029     -0.006970
O	      6.12277      8.12520      8.45275        -0.157793      0.145738     -0.084883
