# total energy = -191.17995412 eV
 
CRYSTAL
PRIMVEC
-0.050357 6.186633 6.216558 
6.095754 0.006702 6.159425 
4.067092 4.089738 0.001209 
PRIMCOORD
36 1
Li	      4.03331      6.15969     10.29888        -0.107037     -0.140597     -0.004664
Li	     10.07453      6.25924      8.31934         0.032500      0.096067      0.001936
Li	      4.01440      4.15311      4.23747        -0.017768     -0.043663      0.108313
Li	      5.97966      4.15963      6.30901        -0.059930     -0.010522      0.048593
Li	      6.05341      4.10034     10.24801        -0.121193     -0.064206      0.062313
Li	      8.13718      6.20158     10.25163         0.106398      0.147327     -0.023545
Li	      2.11623      4.08266      6.14618        -0.052687     -0.027149     -0.053056
Li	      4.06537      6.08270      6.15526         0.039263     -0.032747     -0.033268
Li	      4.11809      4.11649      8.13667        -0.023236     -0.022084      0.087539
Fe	      6.04534      8.21019     10.32748         0.563156      0.779052     -0.055258
Co	     -0.03569      6.18630      6.20307        -0.072563     -0.261350     -0.128738
Co	      8.13997      2.07544      6.16117        -0.426233      0.044184     -0.006865
Co	      2.01237      6.19985      8.25381         0.251973      0.215635      0.138004
Co	      6.00001      6.17167      4.17148         0.084567      0.070028      0.079369
Ni	      4.02089      8.22317      8.27918        -0.114596     -0.150993     -0.034190
Ni	      8.07336      4.14939      8.28017        -0.029732     -0.224853      0.133304
Ni	      8.08415      6.19650      6.20436         0.035477     -0.013622     -0.100723
Ni	      6.03813      6.12214      8.24544        -0.137464      0.153403     -0.136458
O	      2.03426      1.97011      1.98631         0.013376     -0.097542      0.422216
O	      4.16783      4.06113      1.90682        -0.014070      0.200063     -0.360652
O	      3.99208      2.03861      4.17256        -0.137765     -0.016899     -0.010325
O	      6.07192      4.16754      3.90947        -0.051379      0.062016     -0.054894
O	      6.19753      1.96591      6.13834        -0.244173     -0.462786      0.047389
O	      8.26255      4.04805      6.25066         0.355666      0.055118     -0.138044
O	      2.02591      3.92200      4.08101         0.029296     -0.124284      0.112301
O	      4.20516      6.13096      4.15996        -0.016890     -0.039738     -0.018169
O	      4.06410      3.99252      6.18027         0.039369      0.083853     -0.031486
O	      6.08811      6.13649      6.10152        -0.207015     -0.051789     -0.225745
O	      6.10146      4.18412      8.25064        -0.071567     -0.069973     -0.018691
O	      8.04911      6.13941      8.15649         0.073453      0.119564      0.180587
O	      1.90158      6.30050      6.32655        -0.203712      0.058299     -0.011602
O	      3.85905      8.37757      6.22599         0.563260      0.552344     -0.071418
O	      3.90414      6.21808      8.21961        -0.031613     -0.130858     -0.095949
O	      6.04259      8.31200      8.34237         0.054422     -0.076834     -0.072046
O	      6.05873      6.27469     10.37767        -0.031727     -0.541757      0.606266
O	      8.01811      8.25763     10.52480        -0.069828     -0.032705     -0.342343
