# total energy = -193.87343010 eV
 
CRYSTAL
PRIMVEC
-0.007251 6.089329 6.122522 
6.215370 -0.026062 6.141837 
4.130880 4.059261 -0.004903 
PRIMCOORD
36 1
Li	      4.02742      4.07392      0.11354        -0.034084     -0.029456     -0.026742
Li	      6.04875      4.06949      2.03654         0.013807     -0.067322      0.038717
Li	      4.15142      2.14752      2.02211         0.086403     -0.025497      0.016168
Li	      8.29064     10.10887     10.22852        -0.022840     -0.074755     -0.044553
Li	      2.12657      4.08631      2.01675         0.017681     -0.055398     -0.046959
Li	      4.13638      4.05152      4.00304         0.039654     -0.014737     -0.040458
Li	      6.21083      4.06885     10.20705         0.028234     -0.014628      0.021663
Li	      2.03131      6.06490      4.09947         0.008735      0.052364      0.092660
Li	      4.16875      4.05568      8.19359        -0.070731      0.067240      0.160911
Fe	      2.10997      1.98965      3.94814         0.037905     -0.124264      0.110508
Co	      6.26734      8.08954     10.16797        -0.870424      0.117383      0.314653
Co	      8.26102      6.00217      6.12965        -0.143857     -0.103097     -0.336361
Co	      2.08165      4.07414      6.13221         0.034481      0.038077     -0.044304
Co	      4.16041      6.07688      6.12160         0.219931     -0.083042      0.032233
Co	      6.21876      6.02555      8.16302        -0.387229      0.245303     -0.096575
Cu	      2.11601      2.05952      0.06212        -0.136528      0.111008     -0.391294
Ni	      4.07375      6.03482      2.07860        -0.019418      0.278624      0.300253
Ni	      6.20334      3.99481      6.13045        -0.095899      0.092084     -0.166639
O	      8.09076      8.09517     10.36865         0.119105     -0.173628     -0.166103
O	      2.00702      2.05426      2.04043         0.090091      0.063008     -0.090160
O	      4.09985      4.10969      2.03657        -0.033330     -0.298888     -0.018359
O	      4.17528      2.01431      4.22248         0.274115      0.084441      0.249070
O	      6.21772      4.06608      4.09204         0.045494     -0.752474     -0.037706
O	      6.00353      2.02075      6.14169         0.591862     -0.137300     -0.628425
O	      8.20621      4.08972      6.10598         0.231359     -0.479919      0.235356
O	      2.09041      3.95651      4.28612         0.024849      0.318952      0.129600
O	      4.23153      6.09159      4.21684        -0.098850     -0.031846     -0.015544
O	      4.05171      4.14509      6.14487        -0.092551      0.276268     -0.011740
O	      6.22844      6.06564      6.16146        -0.196746      0.191484      0.051274
O	      6.18340      4.14132      8.15236         0.068994      0.149094      0.170698
O	      8.16405      6.07667      8.03868        -0.061788      0.050646     -0.207695
O	      2.27724      6.07675      6.16347        -0.069497     -0.289395      0.034644
O	      4.29504      7.95205      6.13473        -0.068893      0.214439     -0.038632
O	      4.32967      6.07985      7.99136         0.208803     -0.046419     -0.004046
O	      6.22051      7.95072      8.08600         0.078611     -0.194866      0.314721
O	      6.18725      6.13761     10.02341         0.182552      0.646517      0.139164
