# total energy = -195.39159267 eV
 
CRYSTAL
PRIMVEC
-0.031256 6.100023 6.312073 
6.071645 0.040084 6.240893 
4.073607 4.045307 0.000556 
PRIMCOORD
36 1
Li	      6.06715      4.03926      2.23178        -0.023283     -0.027581     -0.046935
Li	      8.00038      4.08551      4.19656         0.071110     -0.033001     -0.005917
Li	      6.07883      2.21145      4.23601         0.013354     -0.051115     -0.020775
Li	      6.00504      2.16164      8.25739         0.025342     -0.011690     -0.041633
Li	      8.04346      4.12604      8.27539         0.027051     -0.020763     -0.076380
Li	      4.13428      4.05614      4.20883        -0.051264     -0.023905      0.014134
Li	      4.05168      2.11866      6.26805        -0.022055      0.094155      0.008975
Li	      6.07547      4.05789      6.15142        -0.005240     -0.000472      0.051778
Li	      4.07111      4.05259      8.32495        -0.022243      0.056765     -0.037124
Fe	      4.05251      2.06542      2.18475         0.077429     -0.199040     -0.258208
Co	      8.09642      2.12511      6.21442        -0.212230     -0.010135      0.088557
Co	      4.05030      8.10920      4.21718        -0.009048      0.050800     -0.120970
Co	      6.09345      8.11479      6.32600         0.141877     -0.041285      0.182556
Co	      4.06010      6.08563      6.31183         0.038883     -0.123698      0.218703
Co	      6.07368      6.10280      8.41709        -0.116822      0.014657     -0.124153
Cu	      6.09674      6.04233      4.17598        -0.057794      0.170033     -0.018197
Cu	      8.11572      6.09797     10.37144         0.020203      0.000786     -0.066080
Ni	      6.04513      0.10118      6.22414         0.028771     -0.028253      0.018792
O	      7.98826      6.10935      8.44787         0.023410      0.001691     -0.013342
O	      8.20570      8.09780     10.61217         0.070994      0.094446      0.038509
O	      2.13238      1.95554      1.80313        -0.338153     -0.042097     -0.099894
O	      4.05309      3.87205      2.00094         0.033529      0.675719      0.019991
O	      3.96440      2.04062      4.07931        -0.188746     -0.055242      0.511890
O	      6.06034      4.17268      4.16264         0.055600      0.122181      0.036259
O	      6.22702      2.05072      6.24633         0.123878      0.234205     -0.079847
O	      8.14154      3.91633      6.21228        -0.141729      0.014544     -0.057730
O	      1.92512      3.98026      4.37147        -0.013500     -0.241437     -0.007994
O	      4.12680      6.16294      4.34861         0.257094     -0.021367      0.005068
O	      3.90624      4.18930      6.32959        -0.053871      0.045005     -0.069619
O	      5.98367      6.20386      6.50364        -0.050283      0.025089     -0.020961
O	      6.04414      4.19737      8.56069         0.011381     -0.074954      0.103446
O	      2.10522      6.06642      6.14374         0.105516     -0.052951     -0.016644
O	      4.06455      8.06122      6.19210        -0.000781     -0.066322     -0.052535
O	      4.11071      6.22752      8.25347         0.006194     -0.382410     -0.090356
O	      5.98203      8.07548      8.26318         0.262194     -0.022291     -0.012670
O	      6.09312      6.00716     10.38485        -0.086767     -0.070064      0.039302
