# total energy = -194.73254739 eV
 
CRYSTAL
PRIMVEC
-0.000886 6.010804 6.265632 
6.312132 0.022868 6.241384 
4.214279 3.997015 0.009556 
PRIMCOORD
36 1
Li	      0.15967      5.98978      6.18429         0.008058     -0.082605      0.091410
Li	      2.06180      1.94612      0.02052         0.084779     -0.004587      0.109727
Li	      2.10333      5.99395      8.19255         0.053925     -0.007557     -0.073361
Li	      6.26809      6.04876      4.21505        -0.060646      0.038435     -0.014023
Li	      8.39483      6.01928      6.28202         0.005919      0.079016      0.187771
Li	      4.20694      8.00242      4.32592         0.062962     -0.150875      0.075946
Li	      2.13174      6.00000      4.28632         0.062804      0.011272     -0.073590
Li	      4.15562      6.01109      6.20494        -0.010880      0.093877      0.118317
Li	      6.23304      6.01751      8.31332        -0.042155      0.007030     -0.088447
Fe	      4.29529      5.99674     10.46476        -0.335820      0.083016     -0.353499
Co	      4.12100      7.98160      8.21971         0.295373     -0.113169      1.186519
Co	      0.04306      2.03381      2.12965        -0.193621      0.061128     -0.009545
Co	      4.24047      4.04853      4.21167        -0.091088      0.004801     -0.129656
Co	      6.32797      4.06132      6.24797        -0.265095      0.035534      0.081356
Co	      8.35127      8.01643      8.32514         0.153012     -0.116712     -0.161893
Cu	      6.32368      7.98002     10.42275        -0.065660      0.017581     -0.134950
Cu	      8.40795      4.09987      8.36218        -0.048950      0.127545     -0.043749
Cu	      2.11840      3.97930      6.20342        -0.168716     -0.177990      0.105194
O	      2.12349      5.83999      6.24621        -0.008549      0.177529     -0.021989
O	      4.06242      8.01068      6.45001        -0.043373     -0.106045     -0.875213
O	      6.21025      6.04430     10.44866         0.149138      0.139991     -0.013015
O	      1.97960      2.10899      2.12509        -0.048987     -0.073653     -0.011459
O	      4.13054      4.08253      2.27912        -0.001158     -0.046251      0.003706
O	      4.30929      2.07352      3.95449         0.169071     -0.199636     -0.029946
O	      6.23815      3.95481      4.32116         0.078876     -0.173893      0.037988
O	      6.34111      2.15855      6.47448         0.057644     -0.002706     -0.107558
O	      8.21796      4.05884      6.13856         0.085185     -0.018947      0.282546
O	      2.31888      4.00822      4.33787         0.146586     -0.021643     -0.463320
O	      4.25246      5.94527      4.02046         0.055202      0.031957      0.048250
O	      4.46807      4.01710      6.19215         0.086933     -0.026019     -0.275441
O	      6.33892      5.96994      6.27631         0.040534     -0.140857     -0.088061
O	      6.33445      3.98644      8.21980         0.163865      0.095979     -0.030485
O	      8.65193      6.09550      8.34536         0.116499     -0.639449     -0.007125
O	      4.14485      5.94648      8.44063        -0.049461      0.857638      0.172791
O	      6.36479      7.96625      8.10694        -0.311610      0.107219      0.253203
O	      8.29497      8.03578     10.35250        -0.130595      0.133045      0.251604
