# total energy = -193.31165967 eV
 
CRYSTAL
PRIMVEC
0.024708 6.054292 6.215913 
6.260988 0.014215 6.227169 
4.182163 4.052108 0.001132 
PRIMCOORD
36 1
Li	      8.38471      8.10331     12.42974        -0.003796     -0.001635      0.062585
Li	      4.20063      8.04782      8.23025         0.047979      0.032159      0.016585
Li	      6.26853      2.01629      4.24440        -0.015406      0.001128     -0.095288
Li	      4.20203      2.10538      6.22712        -0.021546     -0.078259      0.007984
Li	      6.16249      4.02584      6.24141         0.038015     -0.006537      0.019393
Li	      4.19244      8.12160      4.22257         0.046759      0.049173     -0.003636
Li	      6.31761      8.08653      6.27915        -0.011050      0.006326      0.105798
Li	      4.12108      4.02872      8.15354        -0.110033     -0.000245     -0.015096
Li	      6.29450      6.09602      8.20344         0.032779     -0.021576     -0.033354
Fe	      6.29333      6.06050      4.21047        -0.038467      0.036047     -0.400209
Co	      4.15107      4.02928      0.02870         0.019003     -0.073674     -0.165422
Co	      6.33021      9.91727      8.26241        -0.037452      1.030837      0.237926
Co	      8.43496      9.98269     10.29204        -0.064494     -0.167986      0.009038
Co	      8.34428      4.08804      8.29145         0.045792      0.016470     -0.131894
Co	      8.34099      6.14855     10.37753        -0.094044     -0.016583     -0.180883
Ni	      6.24950      2.10160      8.25637         0.061200      0.030097      0.015636
Ni	      4.22897      3.99842      4.22663         0.077693     -0.138241     -0.201553
Ni	      4.22702      6.09206      6.26785        -0.076875      0.179016     -0.146976
O	      2.05309      2.08999      2.24152         0.022566     -0.220453     -0.170320
O	      4.10465      4.06842      2.01357         0.057926     -0.071446     -0.056978
O	      4.00894      1.90335      4.17561         0.264785     -0.160846      0.019481
O	      6.30090      4.05154      4.06664        -0.029320     -0.252462     -0.261136
O	      6.26582      1.85658      6.27408        -0.010575      0.062856     -0.015977
O	      8.53654      4.04338      6.36550         0.060061      0.043174      0.092395
O	      2.18597      4.13630      3.94928        -0.071533     -0.181375     -0.049887
O	      4.29832      6.08153      4.14823        -0.473869      0.049086      0.073972
O	      4.18647      4.10264      6.18837         0.020281     -0.116588      0.097491
O	      6.23584      6.11211      6.02246         0.124401     -0.038574      0.575843
O	      6.54833      4.09211      8.22791         0.052881      0.105257      0.055289
O	      8.37700      6.01442      8.41017        -0.078716     -0.099631      0.286793
O	      1.96477      6.07457      6.17655         0.061172     -0.082321      0.091803
O	      4.20547      8.19991      6.22308        -0.040055      0.025195     -0.016402
O	      4.11370      6.05613      8.29556        -0.138025     -0.195148      0.149818
O	      6.24645      8.16211      8.31335         0.061955     -0.165671      0.008255
O	      6.20651      6.08359     10.56212         0.186891     -0.001466     -0.002504
O	      8.39729      8.13911     10.34160         0.033116      0.423899      0.021429
