# total energy = -197.42523529 eV
 
CRYSTAL
PRIMVEC
0.011491 6.210300 6.138501 
6.067288 0.001779 6.147788 
4.070368 4.170828 -0.024260 
PRIMCOORD
36 1
Li	      0.05441      6.17767      6.11542         0.114114     -0.068921     -0.110261
Li	      1.99215      2.03669      0.00265         0.116946     -0.169216      0.001914
Li	      1.98329      0.02487      2.00774         0.009404     -0.015742     -0.099132
Li	      4.01566      2.16883      1.98921         0.047182     -0.031871     -0.016033
Li	      6.11825      8.24597     10.21646        -0.011538     -0.005382     -0.154586
Li	      2.03383      4.08127      2.00936         0.024162      0.003536      0.138938
Li	      2.03059      2.08512      4.03049        -0.045112      0.096815      0.016092
Li	      6.07683      4.21504     10.25696         0.037615     -0.037429      0.089180
Li	      8.04083      6.23538     10.27149         0.058482     -0.038266      0.049530
Fe	      4.09203      6.19291     10.23205        -0.138683      0.074231     -0.328989
Co	      4.11111      6.20225      2.03492         0.029958     -0.129162      0.127091
Co	      4.05788      4.12286      4.02576        -0.024568      0.034986      0.694725
Co	      4.06796      2.06045      6.15108        -0.116730      0.139876      0.013433
Co	      2.05488      4.15742      6.16954        -0.031030      0.390162     -0.548797
Co	      3.99142      6.36033      6.04054         0.355493     -0.308672      0.403593
Co	      8.11684      8.31060      8.18766        -0.220865      0.012313     -0.011836
Cu	      6.11703      4.11755      6.13371        -0.168195     -0.010665     -0.150004
Ni	      6.10065      6.26031      8.20655         0.042134     -0.021253      0.132073
O	      4.20492      8.24439      6.11973        -0.147582     -0.537086      0.074368
O	      1.84603      2.09668      2.00986        -0.108167      0.021799     -0.043876
O	      4.02808      4.33801      2.09531        -0.074818      0.289910     -0.050038
O	      4.07351      2.07371      4.20595        -0.032313      0.300889      0.078703
O	      6.01497      4.14328      4.17667        -0.165216     -0.005101      0.061874
O	      5.96126      1.99251      6.31192        -0.066564      0.290988      0.007074
O	      8.06787      4.33008      6.06207        -0.082224      0.000461      0.324864
O	      2.21352      4.13945      4.22510         0.153758      0.045179     -0.078998
O	      4.09883      6.13636      4.07005        -0.108534     -0.271016      0.239315
O	      4.02809      4.03810      6.24472         0.145205      0.138731     -0.058068
O	      6.16058      6.38728      6.18043        -0.243544     -0.290954     -0.037348
O	      5.99596      4.02679      8.13122        -0.052595     -0.112788     -0.122895
O	      8.18729      6.35230      8.09133         0.132861      0.030085     -0.131640
O	      2.13459      6.09706      6.12524         0.392229      0.154311     -0.069027
O	      4.07587      6.08549      8.13745        -0.141878      0.074405     -0.572547
O	      6.19240      8.28801      8.06887         0.108757      0.130346     -0.050956
O	      6.00137      6.22149     10.18775         0.248102     -0.015537      0.188439
O	      8.10062      8.41699     10.10416        -0.036245     -0.159960     -0.006176
