# total energy = -200.66801047 eV
 
CRYSTAL
PRIMVEC
0.009753 6.099334 6.044393 
6.171835 -0.000430 6.054428 
4.129069 4.087550 -0.014662 
PRIMCOORD
36 1
Li	      2.12726      2.07951      0.02925        -0.023583      0.034068     -0.035050
Li	      4.07306      2.03471      2.04416         0.155317     -0.125261      0.075397
Li	      6.11864      2.07355      3.97030        -0.020295     -0.057589     -0.125955
Li	      2.03640      4.02767      2.02667         0.102964     -0.065544     -0.033608
Li	      2.07167      2.03319      4.02685         0.067951      0.009849      0.060537
Li	      4.14522      3.97218      4.02243        -0.086892     -0.091475      0.019230
Li	      4.20851      6.12081      6.07251         0.063291     -0.050294      0.147471
Li	      4.12068      4.10228      8.04937        -0.163759      0.154389     -0.072473
Li	      6.16542      6.10888      8.02836        -0.174337      0.201341     -0.047055
Fe	      8.27315      6.16303      9.98509        -0.072000      0.258938      0.240845
Co	      0.01749      6.09782      6.04475         0.062207     -0.131497      0.171441
Co	      6.20474     10.16716      8.05200        -0.536129      0.516481      0.376096
Co	      8.20613      4.10234      4.01892        -0.176573     -0.310193     -0.370800
Co	      8.22712      6.10595      6.05070        -0.107748      0.007135     -0.179426
Co	      6.09972      4.10071      6.05970         0.030207      0.254615      0.022681
Co	      6.20898      4.09777     10.07748        -0.144077     -0.051275      0.071311
Co	      2.07334      4.06081      6.04762         0.172079      0.022440      0.069091
Cu	      0.02830      2.03751      2.03110         0.100768     -0.236206      0.002625
O	      6.20459      4.01882      8.10107         0.074521     -0.046817     -0.333465
O	      1.99077      1.89167      2.00378        -0.019593     -0.221155     -0.130796
O	      4.25370      4.10680      1.89721        -0.311095      0.084191      0.031750
O	      4.13106      1.87839      4.16168        -0.143955      0.145297      0.033805
O	      6.19357      4.03342      3.95675         0.981900      0.081109     -0.032979
O	      6.04430      1.94468      6.10488        -0.031622      0.198242     -0.122297
O	      8.33481      4.14837      5.98871         0.025338      0.011042     -0.312370
O	      1.98276      4.14930      4.10871        -0.002425     -0.110588     -0.072762
O	      4.06246      6.25811      4.03016         0.278570      0.053698      0.043481
O	      4.06120      3.93314      6.01369        -0.193668     -0.002470     -0.012951
O	      6.30358      6.19889      6.07605         0.036775     -0.285757     -0.061346
O	      8.29967      6.10301      8.04976         0.108839     -0.089673     -0.279942
O	      1.96359      6.01947      6.07203         0.038369     -0.030612      0.347295
O	      4.26845      8.26942      5.92403        -0.084434      0.007956     -0.066031
O	      3.93940      6.14303      8.12479         0.552830     -0.090420      0.622738
O	      6.15768      8.29724      7.93471         0.111769     -0.103904     -0.046267
O	      6.23620      6.03936     10.15408        -0.775717      0.079175     -0.079390
O	      8.38299      8.20692     10.09867         0.104207     -0.019236      0.079168
