# total energy = -199.98845317 eV
 
CRYSTAL
PRIMVEC
0.036285 6.132706 6.227058 
6.069048 0.037950 6.225358 
4.066054 4.107584 0.005049 
PRIMCOORD
36 1
Li	      3.97648      4.02266      0.06096        -0.187073      0.003231     -0.151577
Li	      8.15334      8.25470     12.43712        -0.086132      0.186056     -0.096366
Li	      6.07195      2.09432      8.29202        -0.010907      0.090788     -0.127840
Li	      2.09231      4.08760      2.07418        -0.229950      0.101608     -0.157127
Li	      4.03780      4.12710      4.11150         0.070726     -0.030497      0.223289
Li	      8.13570      6.19680      6.31886         0.030992     -0.010023     -0.044610
Li	      4.11854      8.18240      4.22933        -0.060891      0.039295      0.053593
Li	      2.03323      4.11161      6.16996         0.133694     -0.168448     -0.003392
Li	      4.12500      4.06025      8.27893        -0.020778      0.043731     -0.093850
Fe	      2.11937      5.99584      4.15583        -0.215816      0.296614     -0.080026
Co	      2.00493      6.16086      8.21105        -0.001340     -0.206007      0.503338
Co	      4.03945      2.04801      2.09073         0.264140     -0.175774      0.172660
Co	      8.10671      4.11192      4.18998        -0.043307      0.064830      0.460946
Co	      6.06522      2.05627      4.21615         0.111740      0.214002      0.516522
Co	      2.02652      2.12956      4.12879         0.005119     -0.231794      0.496014
Co	      6.09472      4.15587      6.20415        -0.182622      0.126633      0.078919
Co	      6.14408      6.12483      8.33880         0.146963     -0.464092     -0.347804
Ni	      4.09536      6.16728      6.20423         0.464029     -0.442311     -0.026766
O	      2.13394      2.02171      2.22070        -0.301721     -1.023829     -0.438147
O	      4.11471      3.96028      2.05021         1.317385      0.196430     -0.101257
O	      4.03197      1.95524      4.05779         0.016609      0.033398     -0.144956
O	      6.18851      4.26690      4.20315         0.029864      0.166092     -1.018390
O	      6.03006      2.27447      6.07721         0.040759     -0.264480     -0.069114
O	      7.96693      4.18462      6.07087         0.599307     -0.131266      0.021693
O	      2.04585      4.06784      4.17022         0.021002     -0.102847     -0.218379
O	      4.11639      6.21300      4.12474        -0.066427     -0.036437     -0.222091
O	      4.21930      4.25750      6.17442        -0.515425      0.061166      0.200405
O	      6.02713      6.11999      6.11202         0.082744      0.120241     -0.174948
O	      6.11380      4.23842      8.06387         0.114955      0.300854      0.029646
O	      8.03782      6.17998      8.41808         0.000569     -0.072545     -0.123961
O	      2.19139      6.12154      6.16989        -0.518907      0.073107      1.225653
O	      4.09558      8.04894      6.41926        -0.044421      0.336617      0.105286
O	      4.13782      6.21671      8.43219        -0.871477      0.159213     -0.202843
O	      6.02871      8.12857      8.47753        -0.196799      0.924937     -0.133716
O	      6.04028      6.12594     10.44833         0.110950     -0.041535     -0.104065
O	      7.98574      8.31434     10.37637        -0.007555     -0.136957     -0.006738
