# total energy = -203.54916189 eV
 
CRYSTAL
PRIMVEC
-0.006032 6.134718 6.119892 
6.113111 0.028023 6.085868 
4.085875 4.077739 0.008221 
PRIMCOORD
36 1
Li	     10.10296      4.13839      6.11671         0.118477      0.089882      0.045493
Li	      8.14384      2.18431      6.08596        -0.106706     -0.092419      0.027062
Li	      6.12262      4.02985      2.09342        -0.086425      0.051519     -0.071678
Li	      6.07922      2.17401      4.14231        -0.014830     -0.079211     -0.051205
Li	      6.18520      6.03678      4.08780        -0.032457      0.092858     -0.053923
Li	      4.23630      4.00741      4.12566        -0.034665     -0.021110     -0.042836
Li	      4.07380      2.05778      6.00198         0.097991      0.109276      0.049668
Li	      6.14214      4.11777      5.94436        -0.065405     -0.086205      0.131593
Li	      4.02697      4.12122      8.07728         0.064621     -0.067517      0.018973
Fe	      8.12771      6.22877     10.24164         0.018268     -0.062966     -0.058837
Co	      4.07861      2.05155      2.04003         0.012466     -0.055276     -0.114423
Co	      8.09929      4.10193      4.09666         0.007063      0.065175      0.079810
Co	      6.18262      2.00409      7.97900        -0.008674     -0.020583      1.135358
Co	      8.15962      4.09621      8.05824        -0.022981     -0.098400      0.121870
Co	      4.07732      8.18345      4.12188        -0.003139     -0.057027     -0.123671
Co	      6.12299      8.15997      6.13593         0.076055      0.005681      0.032933
Co	      4.07679      6.11036      6.11960        -0.008337     -0.164238     -0.000908
Co	      6.09866      6.14466      8.12345         0.042469     -0.124874     -0.025595
O	      2.09231      2.19958      2.04834         0.242735      0.266462     -0.050848
O	      3.96822      4.03004      2.08275        -0.134775     -0.234271     -0.095101
O	      4.10179      1.92027      3.91541        -0.061363     -0.074024      0.031799
O	      6.24885      4.08168      4.01375         0.112861     -0.034326      0.072897
O	      6.11606      2.07997      6.22861         0.003400      0.088789     -0.827638
O	      8.17099      4.14654      6.01925        -0.018842     -0.032149     -0.165646
O	      1.90599      4.16424      4.20007        -0.050551     -0.024327      0.029410
O	      4.04075      6.24529      4.13459        -0.030395      0.102421     -0.078772
O	      3.95953      4.20105      6.11899        -0.105344      0.158823     -0.051714
O	      6.00871      6.22175      6.21795        -0.038314      0.041846      0.007959
O	      6.21914      4.14347      8.28494         0.017908      0.256424     -0.014000
O	      8.09750      6.02506      8.20426        -0.202287     -0.015594     -0.009330
O	      2.12345      6.03397      6.13103         0.114029     -0.076588     -0.018220
O	      4.16780      8.06833      6.11320         0.019265     -0.024539      0.018578
O	      4.18005      6.24646      8.08124         0.055605      0.044925      0.115313
O	      6.00282      8.05245      8.04898         0.002092     -0.003701     -0.022088
O	      6.06512      6.06811     10.08039        -0.076942     -0.052779     -0.032793
O	      8.24062      8.22039     10.16042         0.097127      0.128042     -0.009489
