# total energy = -90.46057441 eV
 
CRYSTAL
PRIMVEC
0.000240 2.077598 2.078562 
8.411148 -4.216683 4.219360 
2.063488 2.086711 -4.165948 
PRIMCOORD
16 1
Li	      4.37516      1.91832     -1.92478        -0.077603      0.007480     -0.005124
Li	      4.25343     -0.05807      0.05337        -0.143917     -0.009657      0.014931
Li	      6.21938      2.06102      0.01099        -0.050128      0.091334     -0.082716
Li	      8.29341     -2.03277      2.03578         0.125248     -0.018560      0.008955
Mn	      8.39460     -4.18482      4.18354         0.112950     -0.035662      0.036336
Mn	      2.15724      2.09450     -0.02180        -0.015646      0.031464     -0.025980
Ni	      6.16759     -0.04656      2.12402        -0.905436      0.159903     -0.166339
Ni	      6.25658     -2.07723      4.15509         0.156083     -0.114807      0.115394
O	      2.06737      2.08296     -2.08731         0.011210      0.023727     -0.026633
O	      6.33420     -0.15181      0.15159        -0.192543     -0.255673      0.243333
O	      6.32842     -2.09415      2.09424         0.147301      0.332052     -0.326584
O	      8.55416      0.03094      2.04533        -0.092177     -0.208610      0.211285
O	      8.49734     -2.16270      4.23888         0.110247      0.052028     -0.053130
O	      1.94818      0.12231     -0.12684        -0.106209     -0.066143      0.062159
O	      3.96225      2.06133      0.01003         0.039283     -0.020709      0.026863
O	      4.20159     -0.07016      2.14697         0.881337      0.031834     -0.032750
