# total energy = -99.74614825 eV
 
CRYSTAL
PRIMVEC
0.000046 2.082002 2.082038 
17.112039 0.000299 -0.000163 
0.000083 2.082048 -2.082084 
PRIMCOORD
16 1
Li	      0.24937      2.08210      2.08102         0.056448      0.000344     -0.000024
Li	      1.89368      2.08235     -0.00078        -0.055714      0.000809     -0.000494
Li	      8.77839      0.00319     -0.00052         0.022273      0.000018     -0.000506
Li	     10.47681      2.08470     -0.00078        -0.020675     -0.001678      0.000698
Ti	      6.62432      2.08567     -0.00060         0.386791     -0.002467     -0.000849
Ti	     12.63084      0.00153     -0.00050        -0.384334      0.001184     -0.000574
Ni	      4.13465      0.00245     -0.00061         0.074135     -0.000394      0.000122
Ni	     15.12025      2.08303     -0.00065        -0.077497      0.001091     -0.000321
O	     12.72281      2.08372     -0.00063        -0.021945      0.000202      0.000246
O	     14.63444      0.00125     -0.00060        -0.107964      0.000602      0.000273
O	      8.45750      2.08515     -0.00063        -0.372211     -0.000021     -0.000627
O	     10.79782      0.00211     -0.00057         0.367023      0.000686      0.000198
O	      4.62047      2.08479     -0.00065         0.109458     -0.003154      0.000158
O	      6.53254      0.00322     -0.00076         0.018588      0.001737      0.001250
O	     17.01328      2.08251     -0.00102         0.227424      0.000534      0.000667
O	      2.24130      2.08267      2.08138        -0.221801      0.000507     -0.000215
