# total energy = -179.27414279 eV
 
CRYSTAL
PRIMVEC
0.014520 6.065995 6.184843 
6.155666 0.005816 6.193443 
4.100341 4.046150 0.007476 
PRIMCOORD
36 1
Li	      4.14529      8.06754      8.25105         0.007316      0.019178     -0.045114
Li	      6.14208      8.11700     10.25972        -0.017168      0.008090      0.026791
Li	      0.05227      2.02446      2.06308        -0.017911      0.018274     -0.001798
Li	      8.15307      4.06642      8.27469        -0.020444      0.006793      0.029017
Li	      2.05005      2.04752      4.12581        -0.015385      0.055125     -0.003371
Li	      8.14914      6.12817      6.21767         0.035220      0.021030      0.023018
Li	      6.17735      8.01639      6.24094         0.017425     -0.045622     -0.078951
Li	      4.15654      6.05458      6.21480         0.001283      0.000161     -0.022409
Li	      4.08801      4.04931      8.19749         0.004214     -0.045982     -0.052583
Fe	      4.06154      3.98438      4.12235        -0.180479      0.170650      0.186505
Cu	      2.12222      6.02910      8.23466        -0.032530     -0.086307      0.070589
Cu	      6.14762      4.04837      6.23638         0.019490     -0.112066      0.216862
Ni	      4.08222      4.07503      0.05806        -0.062216      0.006392     -0.046989
Ni	      8.23379      8.08911     12.35673         0.198048      0.032086      0.010968
Ni	      4.07404      0.06606      4.12341         0.060159      0.119373      0.072440
Ni	      4.12594      8.03792      4.12412         0.223270     -0.178083     -0.066890
Ni	      8.19796      6.08102     10.28341         0.013014     -0.062851     -0.053047
Ni	      6.15049      6.09870      8.27971        -0.028838      0.076494     -0.000419
O	      4.10246      6.06422      8.33181        -0.351272     -0.021824     -0.144899
O	      6.18639      8.12424      8.19303         0.048870      0.437821      0.033782
O	      2.10272      1.89525      1.84075        -0.007753     -0.073826      0.149991
O	      4.24676      4.02444      2.12414         0.166349      0.000900     -0.210926
O	      4.07119      2.12015      4.15660         0.001878     -0.317324      0.007728
O	      6.13537      4.09667      4.17198         0.123262     -0.010801     -0.009193
O	      6.33856      2.07426      6.20152        -0.112920     -0.047943     -0.032435
O	      8.20616      3.91561      6.17970        -0.003738      0.043281      0.203816
O	      2.06518      4.04266      4.15656        -0.059356     -0.073092     -0.062823
O	      4.02525      5.96394      4.08689         0.102557      0.100772     -0.013727
O	      4.21403      4.03387      6.04107        -0.204885     -0.030819      0.251913
O	      6.17686      5.96448      6.40342         0.027455      0.254128     -0.235356
O	      6.14429      4.12709      8.35119        -0.083923     -0.282292     -0.626592
O	      8.08098      6.09750      8.39256         0.279967      0.013473     -0.171868
O	      2.00445      6.21677      6.03080         0.142711     -0.079101      0.283972
O	      3.97135      8.12819      6.07175         0.013324     -0.058576      0.362534
O	      6.16032      6.07021     10.25427         0.014593      0.086955      0.061765
O	      8.29192      8.12558     10.47269        -0.301586      0.055531     -0.112301
