# total energy = -177.94918232 eV
 
CRYSTAL
PRIMVEC
0.011896 6.240700 6.089234 
6.160439 0.027005 6.074224 
4.118058 4.161669 0.006872 
PRIMCOORD
36 1
Li	      6.10150      4.17879      2.04318         0.098808      0.013071      0.049667
Li	      4.14504      2.11653      2.07716        -0.032857     -0.035050     -0.020906
Li	      6.14265      2.14039      4.03694        -0.042210      0.088895     -0.030298
Li	      8.24806      4.22451      8.09841        -0.005940      0.002516      0.020355
Li	      4.08748      4.19783      4.01125        -0.011114     -0.009634      0.135517
Li	      4.15176      2.11212      6.11605        -0.040319      0.167751     -0.060365
Li	      6.16892      4.12473      6.09268        -0.104356      0.011528      0.011877
Li	      2.11851      6.19409      4.00816         0.037992      0.003975     -0.040114
Li	      8.22438      8.27732      8.08481        -0.056457      0.012682     -0.051463
Fe	      4.07571      0.05781      4.01772        -0.344087      0.213112     -0.644552
Cu	     10.23274      6.24888      8.11962        -0.039891      0.336207      0.233869
Cu	      2.08382      4.16251      6.08901         0.203952     -0.162775      0.109573
Cu	      6.25763      6.24191      8.09413        -0.122532      0.089081     -0.166048
Ni	      0.00931      0.03969      0.03962         0.243520      0.007383      0.515546
Ni	      8.18733      2.12772      6.11421         0.082583     -0.480903      0.544195
Ni	      2.07186      2.07288      4.02832         0.152941     -0.105509      0.192821
Ni	      0.01450      4.15912      4.05674         0.010862     -0.152312     -0.802152
Ni	      4.07049      6.20617      6.10747         0.180117      0.071165      0.252707
O	      8.22438      6.25672      8.11970         0.037991     -0.069132      0.009161
O	      4.21072      6.23777      8.22484         0.017042     -0.038736     -0.457500
O	      6.19045      8.23026      7.93765         0.047389     -0.002483      0.197325
O	      1.98481      2.11365      2.00001         0.000209      0.141609     -0.412591
O	      4.09418      4.23234      2.01895        -0.029329     -0.250867     -0.327309
O	      4.09012      1.90809      4.05805         0.232623      0.266089      0.048010
O	      6.36377      4.16418      4.03951        -0.462541     -0.154296      0.015019
O	      6.19658      2.09296      6.19047        -0.127670     -0.110690     -0.254037
O	      8.29396      4.12653      5.92983         0.169286      0.263551      0.858346
O	      1.97860      4.12123      4.22856         0.239028      0.203044     -0.235333
O	      4.16989      6.30100      4.00085        -0.365480      0.038108      0.043991
O	      3.98413      4.27476      6.03645        -0.155210     -0.608162     -0.049946
O	      6.04770      6.20365      6.09749         0.435251     -0.151746      0.223242
O	      6.19901      4.22080      8.24697         0.048676     -0.019057     -0.406625
O	      2.07098      6.32594      6.08102        -0.712045      0.161857     -0.177542
O	      4.16063      8.29143      5.98380         0.056658      0.531577      0.908980
O	      6.04966      6.27073     10.13866         0.632624      0.055983     -0.046352
O	      8.31303      8.50906     10.21963        -0.275511     -0.327834     -0.187067
