# total energy = -178.86369667 eV
 
CRYSTAL
PRIMVEC
-0.033430 6.052616 6.221306 
6.177656 -0.022161 6.210015 
4.138011 4.046978 -0.034420 
PRIMCOORD
36 1
Li	     -0.00288      6.04536      6.22639        -0.019644     -0.017843      0.010221
Li	      1.98560      0.03258      2.02203         0.008388     -0.022824     -0.025646
Li	      8.27514      4.04292      4.14096         0.017441      0.015826     -0.025514
Li	      2.09134      4.03681      2.04490        -0.031466      0.064034      0.019333
Li	      4.09878      4.05807      4.13444        -0.016150     -0.002424      0.040962
Li	      6.19950      4.00672      6.17430        -0.015206      0.027320      0.048260
Li	      4.18651      8.04494      4.15260         0.009595      0.020335      0.009399
Li	      2.02257      6.03196      4.18209         0.002004     -0.015588     -0.050462
Li	      4.04888      6.03541      6.14327        -0.013882     -0.018887     -0.006242
Fe	      4.12761      4.06011      8.30386        -0.122836      0.087702     -0.031439
Cu	      8.19935      8.05240     12.39987         0.179388      0.032613     -0.022251
Cu	      4.11572      2.05905      2.02149        -0.110723     -0.006824      0.333102
Cu	      6.15572      2.06012      4.12812        -0.034851     -0.047536      0.050996
Cu	      6.17330      6.02029      8.26997         0.212764     -0.090069     -0.148218
Ni	      4.17878      6.01432      2.08549        -0.350754      0.515773     -0.013032
Ni	      6.17688      6.00373      4.10560         0.019434      0.089462      0.116941
Ni	      8.27513      6.00267      6.18962         0.152864      0.012002     -0.227247
Ni	      2.02118      4.03796      6.17361        -0.072416      0.159597     -0.103026
O	      2.04478      5.99988      6.16313        -0.024918      0.124066      0.074122
O	      4.08102      8.06717      6.32118        -0.080581     -0.015576     -0.638646
O	      6.15330      6.22665     10.20675        -0.033972      0.155413      0.254366
O	      8.02662      8.08957     10.28803        -0.048238     -0.032606      0.197047
O	      2.09130      2.01622      2.07537         0.121145     -0.017310     -0.113792
O	      4.09401      4.10967      2.06986         0.027920     -0.444861     -0.030101
O	      4.21971      2.02769      4.03622         0.126455     -0.010147      0.255481
O	      6.18378      3.95521      4.13884         0.015665     -0.127192     -0.026387
O	      6.19397      1.99989      6.42352        -0.054958     -0.052349     -0.292666
O	      8.24904      4.02034      6.19233         0.016007     -0.086373      0.009439
O	      2.03914      3.95192      4.32508         0.021335     -0.066023     -0.237078
O	      4.21582      6.04075      3.96579        -0.035829     -0.004241      0.373569
O	      4.02535      3.96666      6.32296         0.109956      0.080090     -0.178223
O	      6.25762      6.10976      6.17204        -0.145491     -0.207984      0.003711
O	      6.06084      4.04184      8.37229         0.162182     -0.270350     -0.008669
O	      8.20502      6.12340      8.23172         0.044307     -0.240713      0.202322
O	      4.21211      5.99292      8.25001        -0.209208      0.134028     -0.025292
O	      6.14486      8.02401      8.03195         0.174274      0.279462      0.204659
