# total energy = -179.12292536 eV
 
CRYSTAL
PRIMVEC
-0.012324 6.204754 6.135345 
6.129773 -0.002987 6.125570 
4.091627 4.135029 -0.006960 
PRIMCOORD
36 1
Li	      6.10945      6.19262     12.23112         0.037859     -0.004240     -0.095416
Li	      4.10966      0.03804      4.10085         0.028205     -0.005025      0.020010
Li	      6.12759      2.03509      4.10779        -0.000470     -0.065174      0.111897
Li	     10.18253      6.24601      8.19243         0.011408     -0.025483      0.143617
Li	      2.04252      4.15373      2.08710        -0.105671      0.099194     -0.013860
Li	      2.06754      2.04569      4.03900        -0.041292     -0.062565     -0.018025
Li	      4.07404      4.11124      4.03127         0.053425      0.028830      0.003802
Li	      6.13723      4.17325     10.15663        -0.031833      0.062449     -0.039139
Li	      6.17564      6.15144      8.25076         0.018501     -0.029634      0.142804
Fe	      4.11897      6.20853      6.06047        -0.076734     -0.009168     -0.154614
Cu	      4.08766      2.08803      2.13088         0.138790     -0.122030      0.029881
Cu	      4.11206      2.01724      6.08782         0.051338     -0.164317     -0.146621
Cu	      6.13173      4.12174      6.09290        -0.076770      0.089823     -0.172156
Cu	      2.01993      4.14865      6.07315        -0.033166     -0.008438     -0.077405
Cu	      6.10001      4.15015      2.12026        -0.133394      0.199248      0.076036
Ni	      8.15602      2.10720      6.10555        -0.054332      0.005139     -0.169485
Ni	      8.13439      6.19147     10.19659         0.168662      0.132131     -0.012170
Ni	      8.18200      8.24704      8.22367         0.742585     -0.407310      0.052956
O	      8.17162      6.29367      8.16700        -0.273023     -0.076136      0.106972
O	      3.99306      6.16352      8.09716        -0.300471      0.124143      0.439115
O	      6.16883      8.34409      8.04630        -0.169089      0.153629      0.026257
O	      6.28439      6.19107     10.23003        -0.377614      0.016946     -0.131972
O	      2.11560      2.00770      1.99298        -0.140318     -0.301514      0.174852
O	      4.19145      4.03032      2.04092         0.208621      0.093455      0.050973
O	      4.08973      2.04939      4.05923        -0.001057      0.076347     -0.151099
O	      6.14706      4.11943      4.14670         0.015131      0.003776      0.069567
O	      6.11071      2.17286      6.12932        -0.251862     -0.067164      0.119056
O	      8.08305      4.15624      6.13928         0.199277      0.177940      0.041697
O	      2.00872      4.29427      4.16529         0.052401     -0.291272     -0.037707
O	      3.95053      6.20517      4.18813         0.115543      0.026436     -0.624574
O	      4.07991      4.11838      6.15905        -0.016974     -0.099170     -0.009713
O	      6.10306      6.17160      6.08296         0.347275     -0.029261      0.099421
O	      5.98744      4.15488      8.06427        -0.008885      0.236862     -0.026641
O	      2.09091      6.24019      6.08791        -0.175636     -0.079115      0.098292
O	      4.09428      8.19940      6.24747         0.074290      0.185844      0.251452
O	      8.17084      8.10494     10.22987         0.005280      0.134824     -0.178057
