# total energy = -180.80051442 eV
 
CRYSTAL
PRIMVEC
0.018295 6.198169 6.135597 
6.230055 0.014625 6.139387 
4.174022 4.155377 -0.011049 
PRIMCOORD
36 1
Li	      8.27977      2.15110      6.13191         0.001766      0.040125      0.057727
Li	      4.15333      2.06324      2.07335        -0.031411     -0.003927      0.073681
Li	      8.27335      4.18979      8.12062         0.022376     -0.038110     -0.014122
Li	      6.31036      6.20413      4.16744         0.080350     -0.006149     -0.049856
Li	      8.27502      6.23569      6.11108         0.000040      0.020414     -0.009254
Li	      6.25012      4.21912      6.16608        -0.012917      0.020397      0.008658
Li	      4.29043      6.18262      6.14182         0.019745     -0.024718      0.041624
Li	      4.20293      4.12402      8.16345        -0.015647      0.022884      0.017394
Li	      6.26506      6.17044      8.09118         0.000438      0.005329      0.112293
Fe	      2.14806      6.23595      8.16958        -0.038493      0.180196      0.338271
Cu	      8.30210      4.19862      4.10883         0.055885      0.026120     -0.092650
Cu	      6.20542      2.09597      8.15848         0.225174      0.086056     -0.104499
Cu	      4.16169      4.10786      4.11123         0.018018     -0.004930     -0.312738
Cu	      6.24587      4.12387     10.20130        -0.071415      0.043935     -0.139594
Cu	      8.32660      6.24817     10.19270        -0.083847      0.066743     -0.096673
Cu	      6.27857      8.24655      6.13185         0.143714     -0.477773      0.371453
Cu	     10.37455      4.17160      6.13133        -0.342166      0.039098      0.261080
Ni	      6.23743      2.09990      4.11086         0.009674      0.065096     -0.131973
O	      2.00950      6.11043      6.13839        -0.138239     -0.251480     -0.373307
O	      4.27704      8.33830      5.95377         0.163129      0.267729      0.222139
O	      4.03641      6.25615      8.35014         0.407130     -0.032142     -0.109682
O	      6.26551      8.51022      8.13071        -0.042765     -0.526330      0.064707
O	      6.33366      6.28436     10.21261        -0.003851     -0.115567     -0.572816
O	      8.32189      8.25495     10.24211         0.202974      0.205241     -0.001660
O	      2.03678      1.88377      2.02963        -0.218717      0.428085     -0.056215
O	      4.24688      4.19448      2.07063        -0.242621     -0.079110      0.465785
O	      4.25145      2.12741      4.07156        -0.287697     -0.140993      0.060813
O	      6.16974      4.11450      4.08276         0.147242      0.116524      0.182920
O	      6.23648      1.98258      6.20151         0.020865     -0.244327     -0.024632
O	      8.41540      4.15228      5.99139         0.204728     -0.021298      0.113748
O	      2.10130      4.18082      4.13886        -0.078398     -0.056043     -0.129240
O	      4.08111      6.13238      4.00834         0.062466      0.027094      0.100537
O	      4.05561      4.16587      6.03390        -0.095198      0.030271      0.157504
O	      6.22934      6.32225      6.17619        -0.006724      0.276523     -0.039797
O	      6.28284      4.05156      8.31764        -0.027121      0.062989     -0.345311
O	      8.41165      6.22135      8.25904        -0.048487     -0.007953     -0.046317
