# total energy = -177.94660389 eV
 
CRYSTAL
PRIMVEC
-0.011600 6.134874 6.209265 
6.052568 0.017073 6.180620 
4.053785 4.089484 -0.007394 
PRIMCOORD
36 1
Li	      4.05270     10.18261      6.21886        -0.018718      0.017997      0.005899
Li	      4.06084      8.15794      8.23743        -0.017512      0.009296      0.024116
Li	      4.03810      6.14049     10.31188        -0.002726      0.004589      0.024051
Li	      6.06288      8.15026     10.29311        -0.051875      0.002599     -0.008957
Li	      8.10537      4.12743      8.19772         0.042917     -0.039778     -0.007277
Li	      4.04552      4.08384      4.10582         0.011715     -0.007897     -0.012532
Li	     10.06098      8.24069     10.35829        -0.019606      0.010952      0.020601
Li	      4.00609      6.18720      6.29028         0.027133      0.029415      0.067510
Li	      4.02382      4.12311      8.24867         0.000645     -0.010509      0.003736
Fe	      2.02482      2.08669      4.11311        -0.130275      0.055086     -0.019793
Ni	      2.07047      8.18514      6.20561        -0.038135      0.040583      0.059027
Ni	      2.04245      6.12825      8.28910         0.045622     -0.094220      0.105123
Ni	      6.05848      2.07438      8.22034        -0.087346      0.078306      0.232914
Ni	      8.09922      6.10813      6.18670         0.043122     -0.093242     -0.074565
Ni	      6.02695      4.08870      6.17682        -0.042676      0.083912     -0.180635
Ni	      2.02805      6.12984      4.12755         0.105909     -0.078574     -0.034445
Ni	      6.02928      8.21095      6.21006         0.006711     -0.006673     -0.031794
Ni	      5.99710      6.13319      8.27384        -0.020611     -0.022484      0.021337
O	      2.03448      2.00079      2.06794         0.108227      0.072464     -0.095839
O	      4.16128      4.26453      2.05079        -0.113974     -0.275682     -0.002095
O	      3.90186      2.06674      4.21803         0.360332     -0.002886     -0.003970
O	      6.03612      4.24581      4.20847        -0.008974     -0.252325     -0.075418
O	      6.10591      2.07868      6.31026         0.049631     -0.174303     -0.264135
O	      7.95079      4.13413      6.16831         0.164072      0.001360      0.017433
O	      2.00678      4.04011      4.25113         0.021296      0.269454     -0.071073
O	      4.09702      6.18090      3.94806        -0.214934      0.006952      0.113360
O	      4.09273      3.94676      6.18766        -0.100651      0.153605      0.030201
O	      6.03115      6.18062      6.22780        -0.080516      0.053277     -0.002863
O	      6.04111      4.02466      8.08781         0.013143      0.095814      0.167949
O	      8.05970      6.10912      8.24977        -0.035719      0.052136     -0.115764
O	      2.05922      6.09423      6.15990        -0.023165     -0.008199      0.059735
O	      3.99229      8.21693      6.20094         0.067970     -0.026901      0.008285
O	      4.00829      6.10071      8.31794         0.028284      0.024008     -0.029894
O	      6.03017      8.24052      8.14193         0.019728     -0.054868      0.105821
O	      6.13261      6.15178     10.17385        -0.068638     -0.018970      0.146476
O	      8.06921      8.08978     10.48053        -0.040404      0.105705     -0.182525
