# total energy = -220.79321043 eV
 
CRYSTAL
PRIMVEC
-0.032535 6.323452 6.265568 
6.463337 -0.064978 6.295108 
4.286389 4.215898 -0.019358 
PRIMCOORD
36 1
Li	      6.37923      4.01602      2.20273        -0.004175      0.008127      0.001243
Li	      4.19935      2.15053      2.19320        -0.001154      0.010137     -0.009071
Li	      6.36731      2.05427      4.15066         0.003538     -0.003751      0.001363
Li	      4.31206      6.24516      2.14529         0.001699     -0.001517     -0.000601
Li	      2.21676      2.09204      4.04622        -0.010984      0.000837     -0.001412
Li	      4.23635      4.16593      4.05155        -0.009310     -0.016601      0.009005
Li	      4.24815      2.08325      6.26171         0.007018     -0.003447     -0.007121
Li	      2.25892      6.24113      4.08085         0.011633      0.000467      0.000641
Li	      6.48316      8.34931      6.37414         0.003285      0.005926     -0.002529
Sc	      2.07747      2.06782     -0.00513        -0.011481      0.012152      0.002727
Sc	      6.38724      4.12517      6.19560         0.012799     -0.009021      0.007903
Sc	      0.07233      4.16624      4.12526         0.001469      0.001443     -0.009789
Sc	      4.21293      6.28135      6.29613         0.006509     -0.009916     -0.006648
Co	      2.40221      4.26163      2.07927        -0.014095      0.014207     -0.001213
Co	      8.53569      8.36644      8.41173         0.025188      0.006047     -0.003203
Ni	      0.04532      0.03721     -0.00943        -0.012972      0.005113     -0.001827
Ni	      4.26892      0.18576      4.10632         0.015036     -0.008139      0.007524
Ni	      6.43665      6.34170      8.38336        -0.002179     -0.006703      0.008197
O	      4.30825      2.03287      4.19181        -0.007113      0.014650      0.004347
O	      2.12617      2.40928      2.03976         0.005148     -0.009289     -0.004291
O	      4.24808      4.24637      2.03361         0.009485     -0.009324     -0.003485
O	      6.60085      4.19286      4.18307        -0.011820     -0.009660      0.004250
O	      6.50978      2.06439      6.27300         0.000646      0.013590     -0.004784
O	      8.57338      4.16031      6.38294         0.000039     -0.001940      0.005611
O	      2.12716      4.23621      3.93173         0.006511     -0.001767      0.003895
O	      4.29468      6.34676      4.24819        -0.001083      0.006700      0.008130
O	      4.29027      4.16921      6.46234         0.009685      0.011562      0.006249
O	      6.34670      6.23972      6.41304        -0.004683      0.004843      0.002228
O	      6.18017      4.24560      8.36426        -0.001691     -0.001554     -0.009651
O	      8.50330      6.07087      8.37774        -0.004932     -0.004546     -0.006850
O	      2.11673      6.33694      6.32534         0.001501     -0.020495     -0.009126
O	      4.21442      8.42813      6.19390        -0.013990     -0.000604     -0.003865
O	      4.34337      6.35258      8.39826        -0.003793     -0.000454      0.002774
O	      6.68302      8.25319      8.39105        -0.003796      0.003161      0.002041
O	      6.24232      6.24390     10.42574         0.006872     -0.010978      0.004968
O	      8.62510      8.39515     10.34614        -0.008812      0.010743      0.002373
