# total energy = -228.51963795 eV
 
CRYSTAL
PRIMVEC
-0.017871 6.450601 6.282636 
6.361631 -0.001056 6.265707 
4.249148 4.297013 -0.007743 
PRIMCOORD
36 1
Li	      0.12770      6.44472      6.13954         0.004824      0.006943      0.007755
Li	      8.46120      2.25551      6.16690        -0.004594      0.004619     -0.000341
Li	      2.18543      6.35377      8.25935        -0.003147     -0.000250      0.002735
Li	      8.46876      4.29427      4.33746        -0.002076      0.009825      0.006189
Li	      6.29587      6.50325      4.27391         0.007259      0.004860     -0.000066
Li	      4.26536      2.09860      6.18230        -0.002861      0.000597      0.003886
Li	      4.24221      8.54280      4.31857        -0.011230      0.016277     -0.004925
Li	      2.06871      6.48131      4.26589        -0.003203     -0.001723     -0.001248
Li	      4.16771      4.40703      8.33125        -0.000236     -0.007330     -0.002391
Sc	      4.17700      8.57779      8.29181         0.008187     -0.011112     -0.003333
Sc	      4.23531      6.41389      2.10162         0.003489      0.003704      0.005507
Sc	      2.10891      4.30059      2.13922        -0.005215      0.005350      0.001413
Sc	      6.38378      6.49049      8.37943        -0.000800      0.007051     -0.007340
Co	      6.42715      2.13663      4.30286        -0.023108      0.005230     -0.000782
Co	      6.36776      4.26158      6.28307        -0.019435     -0.004413      0.004951
Co	      2.08669      4.30427      6.18281         0.003264      0.002118      0.011213
Co	      4.17721      6.44262      6.16011         0.003312     -0.006627     -0.006841
Ni	      4.28995      4.27960      4.22600         0.010679     -0.001314     -0.002797
O	      2.11476      2.19546      2.17795         0.000170      0.004460     -0.001229
O	      4.20194      4.29883      2.08893         0.001342     -0.003213     -0.001335
O	      4.54973      2.18843      4.12705         0.008918     -0.000794      0.004184
O	      6.36153      4.10841      4.35472        -0.000961     -0.010112      0.009422
O	      6.36182      2.15212      6.32029        -0.004678     -0.008210     -0.003579
O	      8.23938      4.30860      6.33065         0.007851     -0.000801     -0.002096
O	      2.18648      4.26407      4.28355         0.001094     -0.005895     -0.017929
O	      4.24977      6.43277      4.23446         0.006975      0.010069      0.002902
O	      4.46721      4.39407      6.25998         0.004285     -0.003558     -0.002695
O	      6.33674      6.62331      6.24760        -0.002411     -0.002102     -0.004758
O	      6.35833      4.31980      8.34818        -0.000270      0.004355     -0.003183
O	      8.48978      6.37293      8.40349        -0.000406     -0.011907      0.001312
O	      2.20247      6.17686      6.24203         0.005665      0.004747     -0.009684
O	      4.13472      8.52543      6.23488        -0.006885     -0.001592     -0.004413
O	      4.27110      6.50457      8.19079        -0.005936      0.004865     -0.000289
O	      6.32027      8.57276      8.14882         0.004949     -0.005820      0.000658
O	      6.30151      6.64800     10.43873        -0.001019     -0.006682      0.011003
O	      8.14026      8.61653     10.42906         0.016208     -0.001617      0.008123
