# total energy = -206.62513638 eV
 
CRYSTAL
PRIMVEC
-0.000125 6.222868 6.170171 
6.187557 -0.016893 6.185398 
4.107410 4.142601 0.006075 
PRIMCOORD
36 1
Li	      4.08212      2.05885      2.07265        -0.004462     -0.011224     -0.006089
Li	      8.21694      4.14284      4.17746        -0.004043      0.005532      0.002933
Li	      2.05432      4.16184      2.09942         0.005893      0.002222     -0.002240
Li	      6.23013      6.21931      4.20528         0.000859      0.007737      0.006214
Li	      8.18206      6.17963      6.18730         0.004623      0.013726      0.002343
Li	      6.23396      4.25948      6.17209         0.007424      0.009525     -0.004827
Li	      0.08311      4.14475      4.10614         0.015369      0.014209      0.008574
Li	      2.09958      6.17137      4.10236         0.007216      0.003698      0.007204
Li	      4.17137      6.21811      6.09715         0.017131      0.011386     -0.005159
Sc	      4.18119      4.14042      8.17434        -0.011889     -0.011496     -0.010923
Co	     10.22101     10.31074     12.31370        -0.016514     -0.016212      0.006974
Co	      8.21379      8.27950     12.31816        -0.004996     -0.006043      0.002203
Co	      2.08016      0.04133      2.06240        -0.011794     -0.016155     -0.000081
Co	      6.12478      2.08369      4.15308        -0.022247      0.010816     -0.005814
Co	      0.03761      2.06541      2.08091         0.000405     -0.007278      0.010614
Co	      4.10588      4.13472      4.15759         0.011134     -0.005482     -0.017359
Co	      6.21807      6.21297      8.24317         0.010783      0.026560      0.007820
Ni	      6.13053      8.23872      6.12162         0.011453      0.004810      0.000527
O	      1.95313      2.02333      1.89755        -0.003943     -0.016028     -0.002095
O	      4.22993      4.09791      2.20871         0.004428      0.001508     -0.006530
O	      4.23433      2.21255      4.17876        -0.007530      0.002586      0.007148
O	      6.04064      4.02820      4.12951         0.003562     -0.006833      0.018813
O	      6.25947      1.92800      6.27845        -0.000546     -0.000467     -0.012094
O	      8.37214      3.97502      6.18367        -0.000959     -0.003930      0.004062
O	      2.27709      4.08372      4.13412        -0.018504     -0.009019      0.006632
O	      4.18204      6.01953      4.01978         0.000260      0.011000      0.011165
O	      4.09128      4.18666      6.09745        -0.004944      0.009292      0.013314
O	      6.16730      6.22539      6.38115         0.002121     -0.008482      0.019068
O	      6.21304      4.24413      8.31041         0.006198     -0.009866     -0.008064
O	      8.39940      6.22236      8.25025        -0.005335      0.004401     -0.019395
O	      1.84534      6.28861      6.18656         0.012576      0.006151     -0.002065
O	      3.98842      8.42699      6.07683         0.005723     -0.006880      0.008030
O	      3.92189      6.23211      8.23592         0.003829     -0.005275     -0.004614
O	      6.15999      8.20788      8.21003        -0.009465      0.000367     -0.011527
O	      6.12615      6.37772     10.16805        -0.000672     -0.010503     -0.023702
O	      8.04521      8.29591     10.36498        -0.003145      0.005649     -0.001060
