# total energy = -220.75876815 eV
 
CRYSTAL
PRIMVEC
6.080162 0.025144 -0.014042 
1.705980 7.663041 -0.130607 
1.439576 2.438935 7.290884 
PRIMCOORD
36 1
Li	      7.80855      9.15712      4.81795         0.007262      0.001992     -0.000914
Li	      3.15356      8.39019      2.45277        -0.000149      0.001674     -0.002537
Li	      3.13248      5.12438     -0.06190        -0.001159     -0.006817     -0.014891
Li	      6.20684      6.79034      4.73541         0.009078     -0.001924     -0.000686
Li	      3.15170      6.81794      4.69406        -0.002386      0.000743     -0.004855
Li	      1.80194      6.01731      2.36070         0.003568      0.001908     -0.005292
Li	      3.04838      5.07832      7.15060        -0.005274     -0.004803      0.009006
Li	      1.68612      4.09184      4.79783        -0.001344      0.012062      0.002632
Li	      2.76609      1.65655      4.73798        -0.004076     -0.002259     -0.005829
Sc	      4.41429      2.43490      7.26116         0.001221     -0.008529     -0.001194
Sc	      6.02041      5.09500      7.13942         0.000755     -0.002841      0.001650
Sc	      4.57002      0.72224      2.57417        -0.011045      0.004352     -0.007979
Sc	      6.22535      3.39682      2.38732        -0.003020      0.008443      0.006827
Co	      7.90608      7.65862      7.04652         0.010871      0.010224     -0.016466
Co	      3.04041      3.37577      2.37185        -0.001685      0.008293      0.006459
Ni	      4.51975      5.91118      2.39846         0.013327      0.006903      0.009254
Ni	      4.45481      4.23126      4.79814        -0.000373     -0.001645      0.001704
Ni	      0.06273      0.03764     -0.00237        -0.006073      0.009711      0.014620
O	      7.70371      7.66828      3.53629         0.010758     -0.010760      0.002304
O	      6.42597      8.29534      6.15195         0.000179     -0.002764      0.005296
O	      3.16494      8.41980      6.06461        -0.011949     -0.014468      0.007021
O	      4.68575      7.53885      3.44052         0.002047     -0.002310     -0.012008
O	      3.28814      6.80769      1.11829         0.000856      0.002485      0.004613
O	      6.28275      6.73587      1.01082        -0.014665      0.000184      0.004685
O	      7.61871      6.05624      6.20739         0.002882     -0.009843      0.006273
O	      4.51789      5.76554      5.93009         0.002204      0.005935      0.016166
O	      3.05275      4.91387      3.49705        -0.001358     -0.004590     -0.006421
O	      5.80709      5.04922      3.59152        -0.002339      0.002438     -0.001372
O	      4.43023      4.22727      1.31301         0.002398      0.007836     -0.008666
O	      1.50319      4.28186      1.15392        -0.006082      0.008023     -0.001129
O	      3.04346      3.25866      6.00873        -0.010304     -0.005896     -0.004105
O	      6.00656      3.33268      6.04963         0.005775     -0.003466     -0.001994
O	      4.43037      2.61770      3.52668         0.004143      0.001264     -0.001591
O	      1.63672      2.59502      3.46085         0.001201     -0.000557      0.000143
O	      5.97785      1.70073      1.19213         0.001783     -0.004166      0.003406
O	      3.13066      1.77428      1.16126         0.002975     -0.006832     -0.004133
