# total energy = -221.58624684 eV
 
CRYSTAL
PRIMVEC
5.967617 -0.043870 0.014209 
1.584351 7.747008 0.019260 
1.418365 2.592235 7.350987 
PRIMCOORD
36 1
Li	      7.44597      9.23009      5.04589         0.004014     -0.007893     -0.008968
Li	      3.06150      8.58167      2.59941         0.009138     -0.003178      0.003815
Li	      4.42946      7.60505      7.28056         0.003673      0.006779     -0.007500
Li	      5.95912      6.91705      4.99547        -0.005783      0.005502      0.003178
Li	      2.82610      7.03986      4.94470        -0.020992      0.002714      0.004416
Li	      7.48901      6.03037      2.60861        -0.000674     -0.000549     -0.005191
Li	      3.00331      5.30407      7.31149         0.002629     -0.009555     -0.008819
Li	      1.50229      4.25295      4.80073        -0.000071      0.005774      0.000691
Li	      2.87455      1.73790      4.67325        -0.003184     -0.005158      0.002401
Sc	      4.44631      6.09405      2.47180         0.003231      0.001079      0.008249
Sc	      4.43185      4.28337      4.99111         0.006929     -0.005118      0.006225
Sc	      1.48996      2.55644      7.31920        -0.011933      0.004448     -0.007450
Sc	      6.09970      3.39550      2.45865        -0.006488     -0.011416      0.014254
Co	      7.44299      7.69611      7.33518        -0.011143      0.015950     -0.014692
Co	      3.00735      3.44205      2.40693        -0.010297     -0.017933      0.007692
Ni	      5.98680     10.29405      7.35438         0.004061      0.000477     -0.004512
Ni	      5.92241      5.17801      7.35015         0.000707     -0.003867      0.001157
Ni	      4.48000      0.83044      2.61093        -0.007281      0.008514     -0.002147
O	      7.42773      7.83070      3.63769         0.018098     -0.008334      0.005606
O	      6.13327      8.48959      6.37139         0.010147     -0.006521      0.001084
O	      2.82673      8.48454      6.29299         0.006898     -0.000501     -0.001276
O	      4.60001      7.78562      3.62836        -0.003972     -0.008578      0.001067
O	      3.08983      7.00164      1.24773        -0.009041     -0.003631      0.002604
O	      6.04352      6.75797      1.18848         0.003621     -0.002146      0.002121
O	      7.37647      6.13238      6.36057         0.005076     -0.006111      0.004030
O	      4.55573      5.91031      6.21330         0.005544      0.000742      0.003908
O	      3.01556      5.05216      3.58636        -0.006705      0.008189     -0.003456
O	      5.89384      5.06477      3.67464        -0.005032     -0.005639      0.000207
O	      4.54452      4.30526      1.23822        -0.001306      0.003903      0.006622
O	      1.52647      4.28788      1.23105         0.005055      0.015532     -0.004985
O	      2.93535      3.34830      6.10408         0.007922     -0.001147     -0.000548
O	      5.91362      3.39234      6.15039         0.000939      0.007510      0.001212
O	      4.37313      2.62416      3.55046         0.001101      0.009390     -0.006409
O	      1.64731      2.64280      3.47904         0.000118     -0.001128      0.001779
O	      5.77359      1.68776      1.18913         0.003424      0.006051     -0.004743
O	      3.16188      1.84816      1.26376         0.001581      0.005850     -0.001621
