# total energy = -222.21078094 eV
 
CRYSTAL
PRIMVEC
5.986657 0.004934 -0.017914 
1.653562 7.799744 -0.005824 
1.404690 2.599719 7.371971 
PRIMCOORD
36 1
Li	      7.59836      9.30282      5.07528         0.001557     -0.011344      0.001634
Li	      3.09355      8.62276      2.59674         0.007900     -0.001351     -0.003135
Li	      4.54232      7.68555      7.22929         0.005573      0.002041      0.001693
Li	      6.06931      6.92932      4.94816         0.002904     -0.000795      0.007337
Li	      3.07879      7.23333      4.85702         0.005578      0.006231     -0.002433
Li	      7.49187      6.06485      2.62913         0.004603      0.003516      0.001128
Li	      1.56239      2.66842     -0.01553        -0.005094      0.000252      0.002470
Li	      1.47823      4.30130      4.72781        -0.000584      0.008413      0.003477
Li	      2.74878      1.73518      4.75923         0.000960      0.005190     -0.005658
Sc	      4.51114      6.10664      2.43684        -0.002493     -0.010780     -0.003705
Sc	      4.48114      4.34208      4.98131         0.007315      0.000036      0.003597
Sc	      1.52284      2.59815      7.31911         0.004320      0.004096     -0.011699
Sc	      4.51417      0.84704      2.58963        -0.010343      0.012048     -0.006439
Co	      7.65926      7.72707      7.27198         0.011941     -0.015479      0.003010
Co	      2.96429      3.47178      2.40330         0.006001     -0.006295     -0.022512
Ni	      4.41371      2.57417      7.34049        -0.005001     -0.001641      0.000686
Ni	      4.51817      2.65751     -0.01204        -0.006043     -0.004522      0.006727
Ni	      6.00398      3.47202      2.41440        -0.001480      0.002288      0.002438
O	      7.58210      7.90936      3.70412         0.023191     -0.009159      0.011388
O	      6.31386      8.52212      6.42749        -0.007256      0.004199     -0.006281
O	      3.06628      8.63015      6.23182         0.001445     -0.006195     -0.000013
O	      4.61762      7.78212      3.63284        -0.004883     -0.004075     -0.001443
O	      3.19219      7.07789      1.19996         0.005358      0.001344      0.003149
O	      6.12798      6.94975      1.23185        -0.010661      0.000308     -0.001874
O	      7.36699      6.12389      6.36267        -0.001780     -0.000503     -0.007645
O	      4.57790      5.98275      6.18762         0.001661      0.007162     -0.002102
O	      3.01398      5.03795      3.51428         0.002656      0.014383     -0.006823
O	      5.92644      5.13159      3.66870        -0.003790     -0.000809      0.007960
O	      4.37338      4.25818      1.34247        -0.012568      0.011802      0.006054
O	      1.39702      4.38698      1.17098         0.002365     -0.001487      0.003046
O	      2.96283      3.38394      6.09019        -0.006279     -0.003537     -0.004598
O	      5.90823      3.40326      6.13358        -0.005986     -0.002061      0.001906
O	      4.31626      2.70141      3.52963         0.002532     -0.001847      0.000524
O	      1.63758      2.71177      3.37165        -0.012782     -0.004109      0.003715
O	      5.83603      1.79107      1.12704         0.000966     -0.003965      0.000950
O	      3.09716      1.95249      1.17592        -0.001804      0.006645      0.013472
