# total energy = -221.28165124 eV
 
CRYSTAL
PRIMVEC
6.074161 -0.024219 0.023065 
1.639006 7.741372 -0.035617 
1.463165 2.540787 7.302918 
PRIMCOORD
36 1
Li	      7.75428      9.24094      4.86516        -0.009717      0.007658     -0.001437
Li	      3.05473      8.53866      2.52919        -0.002016      0.005467      0.003955
Li	      4.59537      7.68809      7.13027         0.009442     -0.005384     -0.011333
Li	      6.19086      7.03233      4.88791        -0.002634     -0.009420     -0.001470
Li	      3.05387      6.85520      5.04721         0.003813      0.001548     -0.000757
Li	      7.60697      5.95148      2.60744        -0.003613     -0.007287     -0.000109
Li	      3.06197      5.28503      7.18223         0.010595      0.008762     -0.006735
Li	      1.52200      4.21872      4.73300         0.003696     -0.006163      0.010521
Li	      2.87391      1.59575      4.76829        -0.008679     -0.005516      0.011088
Sc	      4.49808      2.55836      7.26280        -0.011286     -0.008615      0.018119
Sc	      4.54600      6.01898      2.52137        -0.007752      0.007149     -0.017481
Sc	      6.03318      5.25812      7.18867        -0.009816      0.018654     -0.009880
Sc	      1.70953      7.71457     -0.02659         0.017450     -0.003852     -0.012981
Co	      7.66321      7.67491      7.28930         0.017325      0.003123     -0.010023
Co	      2.83884      3.29478      2.54349        -0.012951     -0.001802      0.016944
Ni	      4.52066      4.24829      4.85812        -0.004542     -0.001306      0.002409
Ni	      4.60787      0.83562      2.61956         0.006602     -0.006591     -0.004673
Ni	      6.06653      3.37763      2.42100         0.008603      0.003301     -0.004537
O	      7.58309      7.74331      3.57289         0.003843     -0.000391     -0.001007
O	      6.35782      8.51180      6.22463         0.010719      0.006859      0.010195
O	      3.00186      8.49167      6.22916        -0.017856     -0.000994      0.007171
O	      4.76331      7.76623      3.55305        -0.001326     -0.006701      0.000466
O	      3.21739      6.94731      1.15970         0.010826     -0.005141     -0.001863
O	      6.17432      6.77703      1.15054        -0.002193     -0.002327      0.008351
O	      7.63779      6.15711      6.21666        -0.005144      0.001674      0.008432
O	      4.57801      5.93812      6.01778        -0.000004      0.009727      0.004987
O	      3.07822      5.00029      3.51040         0.005733      0.005688     -0.003190
O	      6.03644      4.92859      3.56738         0.008806      0.008683      0.004577
O	      4.73486      4.40074      1.10080        -0.006874      0.004879      0.002702
O	      1.36183      4.26103      1.24487        -0.002385     -0.004901      0.005962
O	      3.01135      3.29850      6.08333        -0.008407     -0.002763      0.005853
O	      6.08493      3.42243      6.16017        -0.009150     -0.004075     -0.006318
O	      4.54373      2.65897      3.48508         0.006064      0.000194     -0.002665
O	      1.55994      2.55019      3.55503        -0.007119     -0.001923     -0.011148
O	      5.96167      1.71253      1.32001         0.009259     -0.002789     -0.005936
O	      3.17879      1.78327      1.24101         0.000686     -0.005425     -0.008188
