# total energy = -221.58643812 eV
 
CRYSTAL
PRIMVEC
6.067076 -0.037571 0.034433 
1.620449 7.715763 -0.116729 
1.468377 2.448029 7.325091 
PRIMCOORD
36 1
Li	      7.64398      9.14184      4.88917         0.001999      0.002334      0.006576
Li	      3.12706      8.39693      2.52262         0.002841      0.002719      0.001978
Li	      3.13997      5.21555     -0.03884         0.000889      0.001549     -0.009312
Li	      6.09566      6.74344      4.80105         0.002562     -0.001545      0.003660
Li	      3.15196      6.90359      4.75285         0.003801      0.004566     -0.002060
Li	      1.73463      6.05780      2.33993         0.006106     -0.001516     -0.002680
Li	      3.01134      5.17998      7.12910        -0.001320     -0.003682      0.001712
Li	      1.56646      4.21812      4.76625        -0.007167      0.013215      0.001414
Li	      2.85962      1.62199      4.74129        -0.000486     -0.004671     -0.000029
Sc	      5.96846      5.07343      7.18825         0.003375     -0.002869     -0.003204
Sc	      1.66495      2.50991      7.29591         0.006695      0.005434      0.006999
Sc	      4.55556      0.64466      2.66033         0.008558      0.009355     -0.014136
Sc	      6.13432      3.38306      2.46134        -0.011572     -0.006619     -0.005506
Co	      7.80751      7.64256      7.12350         0.011416     -0.001788      0.003593
Co	      2.99338      3.36652      2.42435         0.007514     -0.019180     -0.020162
Ni	      6.14215     10.06995      7.18254        -0.005531      0.009643      0.007283
Ni	      4.52069      5.95770      2.41087         0.001019     -0.004173     -0.005265
Ni	      4.50331      4.11656      4.87654        -0.001822     -0.008711      0.003899
O	      7.63281      7.61064      3.58301         0.003088     -0.001346      0.009136
O	      6.34918      8.29010      6.26025        -0.005393     -0.000639     -0.017190
O	      3.09427      8.44926      6.08411        -0.005042     -0.016071     -0.006511
O	      4.62872      7.62922      3.56613         0.006775     -0.000483      0.004716
O	      3.19583      6.89889      1.08888        -0.000911      0.002912     -0.005986
O	      6.16998      6.75230      1.06793        -0.002336      0.007144      0.000180
O	      7.54294      6.02440      6.25779        -0.003154      0.001483     -0.004831
O	      4.48348      5.69866      5.94038        -0.009159      0.006615      0.002491
O	      3.02512      4.84473      3.44338         0.003768      0.015243      0.002587
O	      5.84353      4.95747      3.74121        -0.007185      0.007755      0.005918
O	      4.38510      4.17214      1.31751        -0.010948      0.001032      0.012668
O	      1.34368      4.36492      1.09957        -0.004175     -0.005317      0.003395
O	      3.12523      3.28467      6.06433         0.002376     -0.003224     -0.003065
O	      6.06562      3.27908      6.17155        -0.002914     -0.009513      0.001131
O	      4.55079      2.53230      3.70121        -0.001228      0.000813      0.002503
O	      1.62463      2.61953      3.48510         0.007889      0.000400      0.001067
O	      5.90162      1.66491      1.23243         0.001265     -0.007712      0.003634
O	      3.05884      1.90758      1.33701        -0.001592      0.006847      0.013400
