# total energy = -221.61560025 eV
 
CRYSTAL
PRIMVEC
5.986416 0.016292 -0.031183 
1.668114 7.794015 -0.024181 
1.393154 2.584891 7.323313 
PRIMCOORD
36 1
Li	      7.61906      9.34075      4.90089        -0.008644     -0.010276      0.003955
Li	      3.11299      8.63304      2.53116         0.002626     -0.007270     -0.002128
Li	      4.53961      7.68888      7.18979        -0.001332      0.005016     -0.000182
Li	      6.03536      6.93740      4.92717         0.000658     -0.002176      0.005321
Li	      3.03548      7.12390      4.77077         0.007551      0.014238     -0.003852
Li	      7.46576      6.03712      2.66711        -0.005863     -0.002693      0.004684
Li	      2.98213      5.23952      7.28426        -0.005186      0.006027     -0.004660
Li	      1.52138      4.30122      4.75782         0.007082      0.011432      0.005266
Li	      2.76714      1.70965      4.77691        -0.000091     -0.001905     -0.011824
Sc	      4.41533      6.10169      2.41653         0.017135     -0.009179      0.011423
Sc	      4.44728      4.31773      4.95293         0.002784      0.008963     -0.007589
Sc	      4.47522      0.82380      2.53116         0.013178      0.000471     -0.002186
Sc	      6.11750      3.47064      2.36797        -0.015202      0.003476     -0.006270
Co	      7.69962      7.84908      7.11620        -0.004693      0.002875      0.000829
Co	      3.00729      3.48145      2.37941        -0.001137      0.009695     -0.002313
Ni	      6.04518     10.33375      7.22356         0.008564     -0.015197     -0.003297
Ni	      4.51338      2.66944     -0.01258         0.001236     -0.003678      0.002286
Ni	      1.45193      2.60975      7.28767        -0.010320     -0.000026      0.007434
O	      7.59726      7.82961      3.55028         0.001617     -0.006848      0.002802
O	      6.27628      8.53856      6.23061         0.005568     -0.007759     -0.000096
O	      3.03802      8.60127      6.16445         0.000264     -0.001381     -0.001132
O	      4.61356      7.76727      3.57625         0.008560      0.005704     -0.001639
O	      3.27137      7.10731      1.02996        -0.004420     -0.002488      0.004669
O	      6.01331      6.90992      1.07968        -0.000295      0.008807     -0.003050
O	      7.37186      6.17806      6.31434         0.007238     -0.004030      0.004706
O	      4.56519      5.97158      6.13634        -0.008181      0.001602      0.000715
O	      3.01324      5.08507      3.57627        -0.006539      0.002247     -0.001287
O	      5.91121      5.11697      3.62659         0.002226     -0.000153      0.007115
O	      4.40290      4.29987      1.30352         0.004815     -0.001010      0.005711
O	      1.49174      4.42917      1.20676         0.003507      0.002177      0.005908
O	      3.02002      3.33396      6.12453        -0.019270      0.007793      0.001298
O	      5.82088      3.36144      6.19429         0.003178      0.001933     -0.004925
O	      4.42277      2.66155      3.52530         0.002445      0.007272     -0.003567
O	      1.62551      2.67337      3.48379        -0.004103     -0.010426      0.001969
O	      5.84572      1.77897      1.10977        -0.006418     -0.000388      0.000597
O	      3.09891      1.96245      1.18390         0.001463     -0.012844     -0.016695
