# total energy = -221.73178243 eV
 
CRYSTAL
PRIMVEC
6.035765 -0.021916 0.020064 
1.632033 7.816419 -0.008169 
1.450343 2.589178 7.349970 
PRIMCOORD
36 1
Li	      7.57720      9.36072      5.03488         0.000655     -0.005491      0.008792
Li	      3.10886      8.57497      2.56867         0.000715     -0.001483     -0.004492
Li	      4.50636      7.68827      7.21094        -0.006002      0.002375      0.001732
Li	      6.06013      6.83625      4.96201        -0.002099     -0.000779      0.008646
Li	      3.03306      7.23846      4.83944         0.007138     -0.000048      0.006374
Li	      7.57323      6.09755      2.61017        -0.000166      0.002891     -0.008698
Li	      3.09116      5.24445      7.20619        -0.008195     -0.001318      0.000913
Li	      1.56725      4.44295      4.89208         0.001619      0.007785      0.001718
Li	      2.89163      1.71212      4.85167         0.000508      0.003425     -0.003584
Sc	      4.47594      6.12340      2.49601        -0.008913      0.000222     -0.009612
Sc	      1.55938      2.60890      7.26485         0.003880      0.004842     -0.002290
Sc	      4.56333      0.77398      2.62121        -0.000300      0.004961     -0.005768
Sc	      6.11589      3.47287      2.47294         0.010443     -0.005619     -0.010718
Co	      7.66154      7.75429      7.20312         0.018764     -0.012935     -0.001665
Co	      3.07931      3.40982      2.49015        -0.003964     -0.000471     -0.003876
Ni	      4.47106      2.58889      7.33901        -0.007694     -0.007164     -0.002673
Ni	      5.98323      5.19453      7.31887         0.023957     -0.009024      0.015209
Ni	      4.53165      4.29848      4.96698        -0.004071     -0.008512     -0.002702
O	      7.63505      7.84792      3.68678         0.005467     -0.000905     -0.002443
O	      6.31209      8.53842      6.38740        -0.004787     -0.007504     -0.008328
O	      3.05181      8.67123      6.16143         0.001800     -0.001498     -0.000409
O	      4.61991      7.77596      3.65597         0.002522      0.000330      0.000320
O	      3.15508      7.03257      1.20727         0.006120     -0.003293      0.010986
O	      6.10084      6.93081      1.23327        -0.002979     -0.002907      0.008021
O	      7.42903      6.12440      6.32293        -0.007477     -0.004006      0.004548
O	      4.66872      5.94048      6.18713        -0.010477      0.012013     -0.004438
O	      3.05372      5.00343      3.56182         0.000785      0.010048     -0.000675
O	      6.00333      5.12239      3.62498         0.005420      0.019839      0.004945
O	      4.34580      4.22268      1.39527        -0.005815      0.004201     -0.003196
O	      1.29819      4.45118      1.05261        -0.007462      0.000034     -0.002532
O	      3.02303      3.39641      6.11154         0.002466     -0.004867      0.006523
O	      5.99186      3.44090      6.18351        -0.006170      0.008820     -0.000257
O	      4.54894      2.60394      3.65621         0.002150     -0.006709     -0.001342
O	      1.73196      2.67929      3.38259        -0.003689      0.006561     -0.004694
O	      5.88000      1.76418      1.18856        -0.004111     -0.001472      0.000876
O	      3.12805      1.90122      1.21318        -0.000038     -0.002343      0.004789
