# total energy = -221.76276119 eV
 
CRYSTAL
PRIMVEC
6.024677 -0.024817 0.005098 
1.624968 7.708260 -0.039521 
1.428735 2.526001 7.353238 
PRIMCOORD
36 1
Li	      7.61806      9.16891      4.98769        -0.006271     -0.008972      0.000115
Li	      3.05790      8.44392      2.63516         0.006568      0.004315      0.009339
Li	      4.51186      7.56573      7.22277        -0.010619     -0.000098      0.003529
Li	      6.05449      6.91803      4.98765        -0.002871     -0.009373     -0.004149
Li	      3.03551      7.07229      4.76321        -0.001933      0.002412      0.003240
Li	      1.57365      5.95034      2.53688         0.008978      0.004800      0.003278
Li	      1.61741      2.67849     -0.02860        -0.005057      0.001434      0.008309
Li	      1.48213      4.24836      4.73334         0.005507     -0.010756     -0.002646
Li	      4.49024      9.29612      4.82318         0.002553     -0.019939      0.003803
Sc	      4.61333      7.63462     -0.04560         0.006469     -0.009570     -0.002864
Sc	      4.49504      4.28474      4.86858         0.018875      0.001776     -0.006963
Sc	      1.49817      2.54185      7.32277        -0.005672     -0.008852     -0.000645
Sc	      4.49687      0.74607      2.67550        -0.004098      0.001476      0.004409
Co	      7.61993      7.58733      7.18477        -0.006638      0.006315      0.020133
Co	      2.95907      3.43629      2.35844         0.000260      0.018730     -0.005106
Ni	      4.51055      5.99183      2.44307         0.007048      0.001832     -0.001024
Ni	      4.55419      2.60575     -0.00825         0.009044     -0.002225      0.007886
Ni	      6.06552      3.40258      2.37875        -0.007799      0.005695      0.000420
O	      7.56987      7.71534      3.69117         0.020648     -0.004305      0.009651
O	      6.16280      8.47792      6.24001        -0.011326      0.017265      0.003918
O	      3.00587      8.50230      6.20082        -0.005467      0.005369      0.004936
O	      4.58545      7.63887      3.65229        -0.004588     -0.005984      0.008600
O	      3.13529      6.98601      1.18547        -0.001774      0.012262      0.005896
O	      6.14097      6.82491      1.17036        -0.016280      0.003276     -0.007126
O	      7.45156      5.97836      6.34622         0.004048     -0.009366     -0.020368
O	      4.66452      5.86442      6.15556        -0.019171      0.001403     -0.017821
O	      3.03053      4.94321      3.50507         0.001606     -0.003302     -0.006671
O	      5.99151      4.92962      3.54387         0.004129      0.000083      0.003635
O	      4.56436      4.20549      1.36440         0.010158      0.002353     -0.004082
O	      1.65727      4.22343      1.26003        -0.002525      0.003092     -0.001675
O	      2.99227      3.33774      6.12164        -0.001117     -0.003926     -0.009448
O	      5.94965      3.34883      6.13124        -0.000037     -0.000405     -0.005620
O	      4.29871      2.61036      3.55358         0.004622      0.007535     -0.011520
O	      1.52997      2.67323      3.34838         0.008191     -0.000379     -0.005651
O	      5.86863      1.79854      1.19313         0.001621      0.005450     -0.000787
O	      3.14561      1.88363      1.18897        -0.007084     -0.009419      0.013067
