# total energy = -221.23122360 eV
 
CRYSTAL
PRIMVEC
6.053403 0.007903 -0.005138 
1.674661 7.714617 -0.047761 
1.437508 2.530293 7.314539 
PRIMCOORD
36 1
Li	      7.70788      9.16361      4.92956         0.006188      0.006864      0.002673
Li	      3.11620      8.50776      2.51525        -0.006960      0.002346      0.000063
Li	      4.59990      7.69727      7.14966         0.006232      0.000112     -0.017133
Li	      6.16120      7.01022      4.85298         0.006257      0.000278     -0.000200
Li	      3.06297      6.95488      4.93964        -0.016311      0.001288      0.008797
Li	      7.63151      5.98056      2.51303         0.003540      0.003717      0.004206
Li	      3.04593      5.24589      7.23555         0.007614      0.003397     -0.002885
Li	      1.51236      4.27219      4.67062        -0.005581     -0.002968     -0.001277
Li	      4.45327      9.30384      4.69392        -0.007063     -0.003772     -0.011576
Sc	      4.70448      7.67018      0.01283         0.001889      0.004050      0.001536
Sc	      6.04287      5.28172      7.23999         0.010728     -0.008910      0.001496
Sc	      4.46530      4.28815      4.82244         0.002729      0.001587     -0.001648
Sc	      1.76871      7.68928     -0.06589        -0.007912     -0.009255     -0.000191
Co	      7.76986      7.69019      7.23945         0.018481      0.018497     -0.003465
Co	      2.96102      3.39153      2.39370        -0.004462     -0.020930      0.008519
Ni	      4.56965      6.00603      2.42373         0.000391     -0.000252      0.008075
Ni	      4.56569      0.78596      2.62409        -0.012510     -0.002363     -0.002582
Ni	      6.06604      3.36461      2.41746        -0.009281     -0.000449     -0.012599
O	      7.61615      7.76466      3.59038        -0.006843     -0.001324      0.008051
O	      6.34037      8.45812      6.27289        -0.004873      0.004520      0.005274
O	      3.14897      8.57023      6.09550         0.009040      0.007390      0.002235
O	      4.77248      7.71146      3.49722        -0.001889     -0.006279     -0.001070
O	      3.20719      6.92673      1.14997         0.008595      0.000168     -0.006689
O	      6.24541      6.77944      1.13855        -0.000303     -0.002484      0.006316
O	      7.61689      6.12382      6.22084        -0.009054     -0.013109     -0.007803
O	      4.57959      5.92709      5.99005        -0.010683      0.009068      0.002276
O	      3.02483      4.96415      3.47642         0.003647      0.000948     -0.001622
O	      6.00103      4.93110      3.52239         0.001948      0.001336      0.007055
O	      4.39592      4.23048      1.34555         0.001258     -0.007787     -0.016470
O	      1.44969      4.18050      1.27783        -0.006086     -0.000085      0.000729
O	      3.03982      3.35440      6.11877         0.011917      0.008311     -0.000315
O	      5.98033      3.44326      6.15062         0.002435     -0.003587      0.005044
O	      4.41446      2.61165      3.47485        -0.004472     -0.001211      0.009496
O	      1.65157      2.66250      3.43201         0.017065     -0.002287      0.001079
O	      5.92759      1.72909      1.30585        -0.003918      0.005744      0.008736
O	      3.12329      1.83367      1.26346        -0.001755      0.007429     -0.004131
