# total energy = -221.34124896 eV
 
CRYSTAL
PRIMVEC
6.032307 -0.036906 0.034863 
1.610725 7.711105 0.027831 
1.460662 2.584615 7.398163 
PRIMCOORD
36 1
Li	      7.62492      9.20579      5.03545         0.008607     -0.008482     -0.010986
Li	      3.13201      8.46111      2.64649         0.010173      0.009871     -0.004253
Li	      4.50306      7.71178      7.37013         0.001637      0.001129      0.007506
Li	      6.09776      6.84072      4.87819        -0.005453      0.006896      0.010961
Li	      2.98815      6.98136      5.08725         0.003994     -0.006171     -0.003010
Li	      7.54184      5.94681      2.71133         0.005702      0.003917      0.009621
Li	      3.01778      5.32787      7.28126         0.006293      0.001332      0.013832
Li	      1.52944      4.28183      4.79988        -0.003061     -0.006272      0.004909
Li	      2.91481      1.66072      4.75158        -0.006850     -0.005888      0.001564
Sc	      6.00204      5.27794      7.33927        -0.014557     -0.008041     -0.006206
Sc	      4.43832      4.29550      4.95271         0.010673     -0.004214      0.015638
Sc	      1.70809      7.69688      0.05569        -0.001501     -0.000643      0.000208
Sc	      6.12915      3.35654      2.53884        -0.005843      0.009637      0.014723
Co	      7.58738      7.73567      7.42985         0.013987      0.002068     -0.002768
Co	      2.92089      3.34780      2.48628         0.005693      0.011006      0.010580
Ni	      3.03581     -0.02294      0.01657        -0.012694     -0.007384     -0.001898
Ni	      4.57173      6.02835      2.49761         0.004182     -0.009012     -0.003127
Ni	      4.55184      0.75983      2.67993         0.008065     -0.005160      0.003334
O	      7.55656      7.70178      3.68298        -0.016613      0.010616     -0.010245
O	      6.27671      8.54651      6.44937        -0.009846     -0.009771     -0.007706
O	      2.91912      8.52003      6.36871        -0.000967     -0.004659      0.004759
O	      4.69994      7.71429      3.63839         0.001248      0.000534      0.004764
O	      3.27813      6.94659      1.16609         0.008028      0.009300     -0.011917
O	      6.12478      6.76422      1.22501        -0.008097     -0.002373     -0.010708
O	      7.54154      6.16009      6.31968         0.007124      0.010304      0.006644
O	      4.52218      5.94107      6.13858        -0.002155     -0.000802      0.000863
O	      3.05433      4.95474      3.51504        -0.008980      0.005787     -0.007435
O	      5.99223      5.01853      3.75682         0.002126     -0.004658      0.002054
O	      4.70992      4.35198      1.19993         0.007422      0.007178     -0.001371
O	      1.45941      4.29266      1.20621         0.000119      0.014110     -0.001618
O	      2.98884      3.38979      6.20463         0.006035     -0.009075     -0.008745
O	      5.91158      3.41384      6.29905        -0.006150      0.006390     -0.001111
O	      4.47527      2.55976      3.66651         0.000463      0.000381     -0.003229
O	      1.55360      2.58804      3.64857        -0.004174     -0.009999     -0.000048
O	      5.85873      1.64041      1.29858         0.001243     -0.004105     -0.005553
O	      3.09312      1.86382      1.33375        -0.005869     -0.003746     -0.010026
