# total energy = -221.19937551 eV
 
CRYSTAL
PRIMVEC
5.988835 -0.083856 0.093738 
1.538381 7.724551 0.000144 
1.503410 2.539847 7.323009 
PRIMCOORD
36 1
Li	      7.56619      9.15145      5.06962         0.005117     -0.000199      0.001973
Li	      3.06290      8.56908      2.55153         0.001588      0.002829      0.000007
Li	      2.95464      5.13546      0.03971         0.004271     -0.008825     -0.004118
Li	      6.01914      6.86752      4.93100        -0.001226     -0.000354      0.003354
Li	      3.03781      6.85915      5.05446         0.001266     -0.001678      0.011973
Li	      1.56744      6.10400      2.53962        -0.002661     -0.001928     -0.002278
Li	      3.02663      5.21715      7.20567        -0.007155     -0.005006      0.006208
Li	      1.57288      4.22312      4.77265        -0.006029      0.011895     -0.005041
Li	      2.90721      1.71322      4.68769        -0.010034     -0.002561      0.002262
Sc	      4.42145      6.02870      2.53866         0.002071     -0.001878      0.001192
Sc	      5.93506      5.09468      7.25934        -0.004391     -0.008908      0.012978
Sc	      1.62573      2.53129      7.30836        -0.004784      0.001736     -0.005803
Sc	      6.12546      3.31325      2.55098        -0.005678     -0.000372     -0.014895
Co	      7.54625      7.61742      7.34581         0.019901     -0.008580      0.013159
Co	      2.98109      3.39827      2.45384        -0.004855      0.014626     -0.003646
Ni	      6.06371     10.19222      7.34792        -0.007166      0.000102      0.008426
Ni	      4.43953      4.18944      4.91652        -0.004652     -0.005825     -0.008610
Ni	      4.49927      0.78094      2.65036        -0.004740      0.014433     -0.013022
O	      7.39467      7.76182      3.66610         0.003993      0.001772      0.008331
O	      6.22523      8.38629      6.39384        -0.004469      0.005802     -0.013590
O	      2.92042      8.44863      6.26434        -0.000306      0.000132     -0.008562
O	      4.57397      7.71811      3.66081        -0.002850      0.004114     -0.004642
O	      3.07025      6.88103      1.22356         0.006692     -0.005172      0.003552
O	      6.04667      6.69925      1.24490        -0.004503     -0.002186      0.001218
O	      7.52094      6.08481      6.32715         0.003982     -0.002779     -0.003601
O	      4.48709      5.78109      6.02357        -0.000769      0.006129     -0.002658
O	      2.97526      4.97995      3.56268         0.003406      0.008610      0.002070
O	      5.83459      4.97944      3.78005         0.007688     -0.000483      0.006006
O	      4.55181      4.23387      1.27251         0.004839     -0.002880      0.003910
O	      1.52180      4.24549      1.22964        -0.008543      0.004907      0.000335
O	      3.11053      3.32765      6.09916         0.013828      0.001782     -0.009055
O	      6.04725      3.32057      6.19450         0.003948     -0.006767     -0.003167
O	      4.34226      2.65061      3.61145         0.015392     -0.005537      0.005728
O	      1.62275      2.62475      3.54164         0.000897     -0.004299      0.011003
O	      5.86406      1.60924      1.30711        -0.005770      0.003004      0.002294
O	      3.11287      1.73627      1.38273        -0.008297     -0.005654     -0.003293
