# total energy = -221.27623402 eV
 
CRYSTAL
PRIMVEC
5.992892 0.015701 -0.020787 
1.669446 7.759797 -0.067985 
1.407445 2.531201 7.380500 
PRIMCOORD
36 1
Li	      7.62906      9.26975      4.94484        -0.004124     -0.001760      0.006261
Li	      3.04889      8.60683      2.44734        -0.000826      0.008285     -0.003648
Li	      4.53200      7.67190      7.27548         0.014089      0.012251     -0.013886
Li	      6.10161      6.96186      4.85972         0.001084     -0.001257      0.008008
Li	      3.03433      6.98588      4.97163         0.001353      0.000477      0.001124
Li	      7.55454      6.01648      2.47168        -0.009420      0.002063      0.002378
Li	      3.02502      5.26838      7.30220         0.008605      0.005031     -0.006744
Li	      1.48903      4.21640      4.71944        -0.002545      0.000659      0.001128
Li	      2.77321      1.67223      4.71187         0.005664      0.009179     -0.003847
Sc	      4.58613      7.74657     -0.07357         0.002585     -0.002548      0.006198
Sc	      4.54015      6.06779      2.45356         0.004101      0.015190     -0.001638
Sc	      6.00771      5.22932      7.30907         0.009692     -0.012601      0.011046
Sc	      4.44127      4.28448      4.89963        -0.000346     -0.000019     -0.005262
Co	      7.78562      7.79872      7.20844        -0.003628      0.008491      0.001144
Co	      2.95103      3.39077      2.39625        -0.010962     -0.007912      0.001374
Ni	      0.06280      0.01408      0.00585        -0.002468      0.005611      0.003996
Ni	      4.56546      0.82716      2.62481         0.006178     -0.001444     -0.008257
Ni	      6.02714      3.42217      2.41860        -0.010588     -0.006538      0.001359
O	      7.56476      7.82996      3.60560         0.001448     -0.003046      0.009035
O	      6.30158      8.47920      6.30223        -0.010599      0.000491      0.007619
O	      3.08392      8.56945      6.18672        -0.003203     -0.011118      0.000249
O	      4.70792      7.79477      3.51573        -0.014725     -0.012892      0.004124
O	      3.18997      6.93346      1.13817         0.005869     -0.008188      0.014174
O	      6.12612      6.76277      1.11128        -0.011891     -0.006454      0.012736
O	      7.53858      6.19879      6.30640        -0.001149     -0.012859      0.000602
O	      4.51676      5.92668      6.08037         0.007422      0.000201      0.003124
O	      3.02012      4.99019      3.49084         0.001384      0.001028     -0.000746
O	      5.92179      5.08449      3.66000        -0.001522     -0.000657      0.003590
O	      4.35967      4.20809      1.33436        -0.000916     -0.013111     -0.010146
O	      1.45278      4.28266      1.21084         0.006410     -0.004288     -0.009119
O	      2.96067      3.35404      6.11118         0.000099      0.004554     -0.004710
O	      5.89413      3.41437      6.17361        -0.002853      0.008571     -0.007113
O	      4.34029      2.61250      3.50442         0.000930     -0.004066     -0.003762
O	      1.63488      2.68709      3.42345         0.022431      0.005468     -0.014013
O	      5.83306      1.62522      1.28441        -0.006862      0.011618     -0.007886
O	      3.06505      1.83943      1.25557        -0.000716      0.011593      0.001510
