# total energy = -221.38051008 eV
 
CRYSTAL
PRIMVEC
6.094578 0.040083 -0.062420 
1.727264 7.714759 -0.125714 
1.389886 2.475573 7.306122 
PRIMCOORD
36 1
Li	      7.76507      9.14236      4.84437         0.003301      0.007981     -0.009843
Li	      3.14285      8.43725      2.45676        -0.001718      0.001676      0.004686
Li	      4.62740      7.67599      7.05726        -0.002433     -0.007914      0.020062
Li	      6.13558      6.91827      4.77863        -0.013508      0.001565     -0.008768
Li	      3.24840      6.96838      4.73465         0.002334     -0.013804      0.004184
Li	      1.58562      5.91499      2.53692        -0.005562      0.001159     -0.002380
Li	      3.06091      5.18897      7.16599         0.004412     -0.001723      0.001680
Li	      1.57405      4.20099      4.63713        -0.016896     -0.000315      0.011813
Li	      2.76598      1.67427      4.68885         0.006682      0.001983      0.004109
Sc	      4.42446      2.47452      7.22590        -0.000418      0.007353      0.008798
Sc	      5.95302      5.19912      7.13826         0.000338      0.003174     -0.000276
Sc	      1.51094      2.51834      7.29166        -0.006640      0.002889      0.003087
Sc	      4.54940      0.76420      2.60140         0.004846      0.008904     -0.011562
Co	      7.84924      7.66138      7.10945         0.006667     -0.019555      0.014984
Co	      2.98551      3.41189      2.34228         0.014794     -0.000044      0.011455
Ni	      4.55489      5.97612      2.38458         0.002841     -0.003658      0.006735
Ni	      4.49356      4.25061      4.76337         0.004958      0.010155     -0.004179
Ni	      6.09319      3.40506      2.34282         0.007301      0.002697      0.005531
O	      7.72811      7.72236      3.52439        -0.007392      0.004098     -0.003871
O	      6.39693      8.41938      6.11748         0.003335      0.002337      0.002151
O	      3.10972      8.49399      6.08656         0.015802      0.003683     -0.013970
O	      4.72699      7.67349      3.49484        -0.005319     -0.004532      0.001673
O	      3.31699      6.94368      1.02682        -0.006807     -0.009036     -0.000056
O	      6.31296      6.79349      0.99655        -0.007546     -0.000255      0.003988
O	      7.60613      6.13927      6.23382        -0.002066      0.000439     -0.015742
O	      4.56080      5.92354      5.93244         0.006138      0.004129      0.008678
O	      3.05402      4.92538      3.42257         0.001250     -0.001610     -0.002878
O	      6.00372      4.93899      3.48155         0.001305     -0.002874     -0.004434
O	      4.45506      4.19935      1.32213        -0.010633     -0.007435     -0.008484
O	      1.46616      4.25539      1.23700        -0.008302      0.001941     -0.017441
O	      2.95596      3.29148      6.04097         0.001967     -0.001276      0.002176
O	      5.99254      3.38093      6.08820        -0.000246      0.007469     -0.004748
O	      4.37092      2.64141      3.47717         0.000079      0.003085      0.003536
O	      1.62554      2.67408      3.32862         0.001322      0.003155      0.002772
O	      5.98535      1.75544      1.20488         0.004598     -0.003613     -0.010440
O	      3.12366      1.84493      1.14527         0.001218     -0.002230     -0.003028
