# total energy = -221.68580051 eV
 
CRYSTAL
PRIMVEC
6.037812 0.014266 -0.016639 
1.679000 7.721324 -0.044116 
1.422975 2.537621 7.317772 
PRIMCOORD
36 1
Li	      7.71733      9.19710      4.97451         0.002766     -0.010613     -0.002990
Li	      3.12258      8.51614      2.56446         0.000005      0.002820     -0.004757
Li	      4.63243      7.60500      7.08045         0.008049      0.009158      0.001283
Li	      6.11963      6.91240      4.99627         0.012317     -0.010947     -0.007430
Li	      3.07530      7.05148      4.85540         0.010186      0.010078      0.003110
Li	      7.55304      5.95518      2.56855        -0.005960     -0.001825      0.011080
Li	      3.03655      5.23927      7.22331        -0.001676      0.005747     -0.004781
Li	      1.50511      4.22243      4.74220        -0.002714      0.000743      0.004000
Li	      2.75398      1.65850      4.76649        -0.003223      0.008801      0.001749
Sc	      4.45513      2.58181      7.21218        -0.011892     -0.004980      0.007098
Sc	      4.50589      6.00099      2.45937         0.008108      0.020078     -0.016835
Sc	      1.51322      2.53499      7.25039         0.009487     -0.007382      0.002899
Sc	      4.56048      0.83279      2.62893         0.002816     -0.003275     -0.014022
Co	      7.71225      7.66250      7.22929         0.002810     -0.002050      0.001110
Co	      2.96420      3.43032      2.37142        -0.011015     -0.014131     -0.012837
Ni	      5.99773      5.18726      7.25527         0.017572      0.002322      0.015364
Ni	      4.50489      4.27039      4.85191         0.006220     -0.005556      0.005844
Ni	      6.05203      3.40724      2.37878        -0.006663     -0.007602     -0.003451
O	      7.67290      7.77990      3.63410         0.003718     -0.004992      0.011791
O	      6.32747      8.47462      6.26168         0.001196     -0.002128     -0.003219
O	      3.13839      8.53952      6.14586         0.001669      0.003904      0.005182
O	      4.68534      7.67202      3.60155        -0.003915     -0.005272      0.005854
O	      3.25857      7.02820      1.14496        -0.002516      0.003378      0.004384
O	      6.18387      6.87122      1.17018        -0.002674     -0.004347     -0.004834
O	      7.46546      6.08027      6.29686        -0.002589     -0.008197      0.008034
O	      4.66934      5.87617      6.06721        -0.011012      0.006353     -0.010898
O	      3.02330      4.96405      3.47822        -0.003354      0.000009      0.011501
O	      6.00222      4.94723      3.53248         0.006521     -0.007241      0.004829
O	      4.39450      4.22077      1.30453        -0.000675      0.004379     -0.005814
O	      1.43041      4.26438      1.26803        -0.002676      0.005110      0.000624
O	      2.97638      3.34837      6.05132        -0.008857      0.005034     -0.007318
O	      6.01142      3.39849      6.08143        -0.002637     -0.009680     -0.006686
O	      4.38011      2.70413      3.49293         0.002889      0.009254      0.002459
O	      1.65076      2.64369      3.35665         0.004814     -0.003729      0.003185
O	      5.89596      1.82670      1.18494        -0.007101      0.003490     -0.000151
O	      3.13899      1.89665      1.14996        -0.009995      0.013291     -0.005355
