# total energy = -221.27698756 eV
 
CRYSTAL
PRIMVEC
6.032076 0.010837 -0.031801 
1.673409 7.727569 -0.045072 
1.398988 2.542271 7.364890 
PRIMCOORD
36 1
Li	      7.65758      9.15698      4.95968        -0.012812     -0.010121     -0.002828
Li	      3.12995      8.42102      2.57277         0.001852      0.002742      0.000259
Li	      4.52898      7.66252      7.27254         0.014150      0.001782      0.002619
Li	      6.07306      6.85439      4.86880         0.005799     -0.012543      0.005590
Li	      3.09792      7.11372      4.80815         0.004790      0.012241     -0.009919
Li	      1.62818      6.02580      2.55111         0.011446      0.010094     -0.003631
Li	      3.02233      5.22584      7.28622         0.006274     -0.001888      0.001021
Li	      1.50675      4.28804      4.80524         0.011226      0.024517      0.009695
Li	      4.42779      9.36856      4.74433        -0.007668      0.016387     -0.004334
Sc	      4.45422      4.33250      4.92455        -0.005125     -0.003233      0.013065
Sc	      1.56276      2.54453      7.34167        -0.007147      0.017223     -0.019290
Sc	      4.44087      0.70834      2.56977         0.008635     -0.011136      0.002531
Sc	      6.12112      3.44365      2.39280         0.010752     -0.002339      0.001145
Co	      7.67601      7.71026      7.19229         0.008275     -0.011628     -0.002467
Co	      2.99918      3.39606      2.40168        -0.000681      0.004986      0.013976
Ni	      3.01803     -0.00034     -0.02163         0.009759      0.004779     -0.004869
Ni	      4.53009      6.02497      2.40592        -0.003370      0.012875      0.014937
Ni	      5.91937      5.20460      7.31922         0.002638     -0.017330     -0.005386
O	      7.61269      7.79002      3.61112        -0.007572     -0.010871      0.005660
O	      6.33531      8.46378      6.31807        -0.021167      0.011356      0.014240
O	      3.07705      8.57357      6.14901        -0.008593     -0.023397      0.004015
O	      4.62911      7.67445      3.62854         0.012076      0.003646     -0.003511
O	      3.24357      6.94390      1.14213        -0.001562      0.005553     -0.010233
O	      6.18642      6.81197      1.10098        -0.002329      0.002465      0.000732
O	      7.48657      6.13639      6.29887        -0.005442     -0.000791      0.028593
O	      4.58411      5.93737      6.14144        -0.017417      0.007935     -0.004780
O	      3.03448      4.95265      3.46480         0.013393      0.006969     -0.012274
O	      5.95889      5.04542      3.63796        -0.014010     -0.017724     -0.004090
O	      4.37284      4.16374      1.28927         0.001931     -0.014362     -0.011555
O	      1.43846      4.34139      1.15886        -0.003672     -0.009917     -0.005416
O	      2.97698      3.38830      6.09825         0.000256     -0.012027      0.008494
O	      5.94165      3.49106      6.18491        -0.016988     -0.004726      0.007555
O	      4.37602      2.63310      3.51004         0.007636     -0.004071      0.001795
O	      1.66332      2.64828      3.45557         0.010740      0.006063     -0.017291
O	      5.86104      1.74491      1.14773         0.001145      0.005808      0.004314
O	      3.05766      1.89871      1.22917        -0.007219      0.010682     -0.018361
