# total energy = -221.76969104 eV
 
CRYSTAL
PRIMVEC
5.980784 -0.058811 0.057654 
1.568777 7.746981 -0.028270 
1.468856 2.533715 7.330441 
PRIMCOORD
36 1
Li	      7.55897      9.16069      5.10569         0.004415      0.002657     -0.007264
Li	      3.04817      8.56722      2.53041        -0.001982      0.007068     -0.003465
Li	      3.00831      5.18856      0.02954         0.004987     -0.012689     -0.021828
Li	      6.03412      6.88007      4.93009        -0.002614      0.012009      0.000272
Li	      2.97574      6.96335      4.96328         0.009028     -0.003715      0.006035
Li	      7.52889      5.97372      2.58669         0.016905      0.001781     -0.015993
Li	      3.01961      5.22396      7.27404        -0.001282      0.007777      0.005105
Li	      1.46220      4.21525      4.67216        -0.011543      0.005860      0.000026
Li	      2.84556      1.70943      4.69617        -0.001684     -0.010681      0.003904
Sc	      4.43848      6.02238      2.52415         0.001097     -0.003010     -0.007790
Sc	      5.94352      5.13144      7.23021        -0.001244      0.004727      0.002950
Sc	      1.64252      2.55299      7.29407        -0.015032      0.003039     -0.009799
Sc	      4.56159      0.79725      2.63880         0.002698      0.003861      0.010367
Co	      6.11158      5.10714      0.01829        -0.012483     -0.001559     -0.016784
Co	      2.90591      3.40740      2.42107         0.003260     -0.015874      0.000479
Ni	      6.06890     10.20830      7.28701        -0.007401      0.004662      0.004351
Ni	      4.43374      4.18968      4.87962         0.010125     -0.000407     -0.011738
Ni	      6.01992      3.36645      2.45956        -0.003655      0.009613     -0.008244
O	      7.51415      7.75968      3.72558         0.004125     -0.000538      0.000222
O	      6.23750      8.40560      6.39393         0.005644     -0.007256      0.012976
O	      2.94948      8.46424      6.28572        -0.003136      0.000104     -0.001884
O	      4.57052      7.70418      3.63499         0.001527      0.011327      0.001705
O	      3.12910      6.92574      1.18564         0.004022     -0.010114      0.021662
O	      6.07416      6.78317      1.24529        -0.014419     -0.004985     -0.005948
O	      7.52247      6.13941      6.31931         0.005285      0.006310      0.003957
O	      4.48337      5.77456      5.96488         0.004259      0.007950      0.008478
O	      2.95100      4.94189      3.49382        -0.000972      0.007915      0.011761
O	      5.82814      4.96307      3.76016        -0.002257     -0.004124      0.010713
O	      4.47785      4.24255      1.26414         0.012764      0.005025     -0.003177
O	      1.46624      4.31259      1.25300        -0.010750     -0.017566      0.007124
O	      3.09939      3.28549      6.04091        -0.014779      0.012703      0.010479
O	      6.01756      3.32134      6.16608         0.001442     -0.005680     -0.002406
O	      4.31178      2.68741      3.56715        -0.001656      0.002144      0.013548
O	      1.61150      2.66213      3.42921         0.019165     -0.008987      0.003000
O	      5.91036      1.64402      1.21697         0.010720     -0.006518     -0.017472
O	      3.04763      1.87470      1.29083        -0.014581     -0.002831     -0.005321
