# total energy = -221.84254949 eV
 
CRYSTAL
PRIMVEC
6.018651 0.029873 -0.044547 
1.694034 7.732342 -0.046837 
1.389769 2.549420 7.374068 
PRIMCOORD
36 1
Li	      7.66950      9.21363      4.99191         0.005387     -0.000459     -0.002479
Li	      3.09893      8.48369      2.53446        -0.009334      0.006308     -0.001820
Li	      4.57260      7.75079      7.26159         0.005490      0.001968     -0.008914
Li	      6.12525      6.97268      4.88824        -0.000351     -0.007308      0.000436
Li	      3.11654      7.05702      4.86971        -0.003138      0.001155      0.002857
Li	      1.54565      5.97585      2.59535        -0.001695     -0.005072      0.010752
Li	      1.61573      2.68649     -0.07008        -0.000034      0.006152      0.001830
Li	      1.48155      4.27075      4.71286         0.006187     -0.000096      0.009064
Li	      4.41350      9.39532      4.74053        -0.002942      0.010373     -0.003854
Sc	      5.95323      5.26137      7.28638         0.002493      0.006036     -0.015168
Sc	      4.41383      4.30884      4.87518         0.003235      0.001181      0.006487
Sc	      1.57192      2.55179      7.36038         0.002335      0.000721     -0.004189
Sc	      4.47112      0.75003      2.56830         0.013375      0.000203      0.008073
Co	      7.75069      7.74679      7.25109        -0.012250     -0.005328     -0.011900
Co	      2.93896      3.42300      2.39393        -0.000074      0.017303      0.016589
Ni	      6.12157     10.27616      7.29524        -0.011107     -0.008185     -0.005664
Ni	      4.51914      6.02907      2.42195        -0.003710      0.000640     -0.006574
Ni	      6.02483      3.41480      2.38572         0.007137      0.007487      0.007998
O	      7.60261      7.80331      3.65321        -0.010661     -0.003739     -0.004633
O	      6.36703      8.46083      6.36777         0.007941      0.001381      0.004482
O	      3.12660      8.58694      6.17600         0.004927      0.002176      0.000772
O	      4.64205      7.67040      3.59634         0.002634     -0.005590     -0.011453
O	      3.30169      6.93683      1.13447         0.014271      0.005375      0.008815
O	      6.23368      6.85571      1.09878         0.000441      0.006516     -0.002365
O	      7.53959      6.18108      6.26829         0.000864     -0.000615      0.014237
O	      4.53433      5.95152      6.03603         0.001861     -0.004608      0.003780
O	      2.98335      4.97902      3.48220        -0.000469     -0.012274     -0.015924
O	      5.92621      5.02379      3.52861        -0.006126      0.008946      0.004015
O	      4.39853      4.22528      1.38499        -0.011240      0.003344     -0.003360
O	      1.43452      4.33126      1.17605        -0.003908      0.003479      0.014341
O	      2.97820      3.36754      6.09657         0.002857     -0.005554      0.002546
O	      5.93984      3.46502      6.13987         0.000624     -0.002754      0.003505
O	      4.29598      2.62623      3.51558        -0.000854     -0.006350     -0.011496
O	      1.58762      2.71100      3.40424         0.003909     -0.002089     -0.005118
O	      5.93993      1.74032      1.21138        -0.004230     -0.016203     -0.004724
O	      3.05347      1.91168      1.22333        -0.003843     -0.004522     -0.000944
