# total energy = -102.20185752 eV
 
CRYSTAL
PRIMVEC
0.000741 2.166017 2.160317 
6.053964 0.062241 -2.222308 
-1.963883 6.634506 -4.457760 
PRIMCOORD
16 1
Li	      0.01780      2.46674      1.90677        -0.013274     -0.011498      0.008904
Li	      1.83106      2.03643      0.16520         0.028658     -0.008405      0.002400
Li	      4.24280      2.46888     -2.38417        -0.029645     -0.002125     -0.022783
Li	      0.00258      4.13618      0.24250         0.012576      0.003790     -0.010035
Ti	      2.01814      4.42428     -2.09614        -0.001083     -0.139952      0.306149
Ti	      2.09267      6.80799     -4.49872         0.010124      0.310429     -0.148478
Ni	      4.15689      4.41279     -4.44344         0.055409     -0.020403      0.035053
Ni	     -0.04574      6.63130     -2.33759        -0.059020      0.046572     -0.020790
O	      3.93048      4.50928     -2.37157        -0.158116     -0.083132      0.101274
O	      3.99952      2.01590      0.17967         0.025253     -0.297581      0.110884
O	      2.05617      6.49393     -2.42702        -0.002829     -0.025067      0.007461
O	      2.07426      2.48446     -2.41554        -0.026345      0.102111     -0.317799
O	      3.98248      6.48179     -4.37894        -0.272027      0.099990     -0.063533
O	      0.18019      6.53686     -4.40869         0.146906      0.099916     -0.077528
O	      0.12854      4.54044     -2.42662         0.284322     -0.074260      0.094304
O	      0.01023      2.21475     -0.00913        -0.000909     -0.000384     -0.005483
