# total energy = -221.71624706 eV
 
CRYSTAL
PRIMVEC
5.936120 -0.015042 0.015165 
1.613030 7.730633 -0.073300 
1.425423 2.500686 7.363780 
PRIMCOORD
36 1
Li	      7.54907      9.15848      5.05709        -0.010627     -0.005810     -0.001184
Li	      3.04204      8.51861      2.55666         0.004740     -0.004002      0.002640
Li	      4.42771      7.54700      7.19956         0.001028      0.001029     -0.000071
Li	      6.03270      6.93785      5.00118        -0.001972     -0.002878      0.002094
Li	      2.91703      7.01729      4.85468         0.004035     -0.008728      0.006791
Li	      7.46429      5.94211      2.53472        -0.000450      0.004435      0.003464
Li	      1.53361      2.68382     -0.00664        -0.001313      0.003819      0.001227
Li	      1.47666      4.12459      4.72944         0.007980      0.001233      0.000107
Li	      2.76148      1.70204      4.70221        -0.004521     -0.000857     -0.004399
Sc	      4.32448      2.48976      7.35056         0.002636     -0.013496      0.002784
Sc	      4.40514      6.02056      2.45731         0.009047      0.016955      0.002803
Sc	      4.43384      4.23193      4.91716         0.005282     -0.006640     -0.009031
Sc	      4.53347      0.80257      2.61413         0.005882     -0.012899      0.013620
Co	      6.11802      5.09703     -0.02398         0.005069      0.004648     -0.007951
Co	      2.95644      3.42223      2.33034        -0.019355     -0.012988      0.003228
Ni	      5.96286      5.11035      7.30563        -0.002623      0.000552     -0.003409
Ni	      1.47136      2.47216      7.32499        -0.009804      0.003430     -0.003583
Ni	      6.00595      3.39961      2.37731         0.010552      0.002379      0.008142
O	      7.50578      7.76873      3.68247        -0.008789      0.001654     -0.010008
O	      6.19338      8.40171      6.35610        -0.001987      0.003924      0.007117
O	      2.91920      8.41784      6.28428        -0.001894     -0.000061      0.005575
O	      4.57992      7.68799      3.61205         0.004858     -0.005025     -0.006881
O	      3.10230      6.97268      1.18321         0.009020      0.000423      0.000450
O	      6.02981      6.81341      1.17325        -0.003000     -0.001930     -0.006208
O	      7.42493      6.08558      6.34068        -0.006121      0.005821      0.003843
O	      4.62359      5.85047      6.14934        -0.003799      0.005085      0.001657
O	      2.99481      4.98637      3.54424         0.006553     -0.003322      0.003193
O	      5.90516      4.94427      3.56840        -0.003150     -0.005981      0.006207
O	      4.56008      4.21311      1.28231        -0.007281     -0.001873     -0.004784
O	      1.47837      4.33785      1.18465         0.001343     -0.003236     -0.000159
O	      2.95000      3.24217      6.04527        -0.004612      0.003717     -0.011510
O	      5.90479      3.32419      6.13278         0.000265      0.000831      0.004433
O	      4.29414      2.62544      3.50599         0.003762      0.014065     -0.004137
O	      1.55676      2.65515      3.32408         0.009476      0.008228     -0.007796
O	      5.84893      1.80520      1.14181         0.000559      0.002372      0.001256
O	      3.09850      1.86039      1.13785        -0.000790      0.005126      0.000481
