# total energy = -221.24912767 eV
 
CRYSTAL
PRIMVEC
6.017062 0.005794 -0.028028 
1.662397 7.716605 -0.086098 
1.399645 2.499122 7.342179 
PRIMCOORD
36 1
Li	      7.66398      9.19392      4.84832        -0.009542     -0.010114      0.011541
Li	      1.40053      0.88095      2.55281        -0.008523     -0.001699      0.001829
Li	      4.52311      7.54891      7.09658         0.014189      0.002091     -0.005254
Li	      6.09445      6.92448      4.90763        -0.008695      0.009934      0.001247
Li	      3.01423      6.90703      4.92944        -0.008357      0.016181     -0.002786
Li	      7.53949      5.98829      2.52004         0.003392      0.002505      0.000324
Li	      3.01796      5.22908      7.23396         0.014646      0.013937     -0.000248
Li	      1.48448      4.23892      4.67628        -0.002124     -0.006119     -0.003893
Li	      2.76154      1.62739      4.69095        -0.007370      0.005161     -0.011145
Sc	      3.02874      0.05841      0.04305         0.005162     -0.019861     -0.007392
Sc	      4.51181      6.00680      2.41289         0.004519     -0.009491      0.009556
Sc	      4.45944      4.26933      4.88729        -0.004678     -0.007550     -0.024516
Sc	      1.47429      2.50558      7.31459         0.004113     -0.028518      0.003069
Co	      7.70072      7.58997      7.18050        -0.007650      0.009288      0.004295
Co	      2.98489      3.37837      2.37023         0.010994      0.005291      0.006328
Ni	      4.56579      2.64938     -0.07198         0.004849      0.000153      0.001814
Ni	      4.53269      0.81989      2.61583        -0.004634      0.001537      0.004542
Ni	      6.02094      3.36489      2.38110        -0.009639     -0.014427      0.004260
O	      7.54184      7.75155      3.54799        -0.005970      0.002114     -0.001440
O	      6.33092      8.38519      6.31083         0.009546     -0.005971      0.014347
O	      3.07309      8.52199      6.10011         0.001120      0.009630     -0.006981
O	      4.69847      7.71642      3.50198        -0.012248      0.009441     -0.013725
O	      3.21128      6.91480      1.08500         0.002481      0.010228      0.005294
O	      6.17171      6.80437      1.11983        -0.001531      0.000917     -0.004505
O	      7.51202      6.05593      6.20252         0.014545     -0.003328     -0.001565
O	      4.53120      5.90654      6.00498        -0.005708     -0.003701      0.003445
O	      3.03802      5.00855      3.49973         0.006614     -0.018882     -0.003907
O	      5.96078      4.94995      3.53271         0.004674     -0.006124     -0.003771
O	      4.48600      4.12552      1.34673        -0.009429     -0.007028      0.016409
O	      1.42289      4.32088      1.10429         0.004876     -0.012615      0.004146
O	      2.98022      3.31124      6.12128         0.000141      0.022401      0.011419
O	      5.93032      3.33446      6.10707        -0.002083      0.003304     -0.000599
O	      4.31851      2.57334      3.53420        -0.000806      0.019430     -0.016075
O	      1.53092      2.69022      3.38357         0.017529      0.007279     -0.015467
O	      5.88272      1.71415      1.29714        -0.005228      0.000016      0.009088
O	      3.09020      1.78368      1.24389        -0.009176      0.004592      0.010318
