# total energy = -221.56586578 eV
 
CRYSTAL
PRIMVEC
6.000660 0.020631 -0.007039 
1.677506 7.746907 -0.092993 
1.428978 2.499615 7.322762 
PRIMCOORD
36 1
Li	      7.68229      9.23605      4.99751         0.007177     -0.005320      0.005092
Li	      3.10616      8.54863      2.45535         0.000545     -0.003073      0.003569
Li	      4.52201      7.66016      7.18841        -0.007344      0.005351     -0.001448
Li	      6.12710      6.98926      4.88282        -0.004493     -0.003010      0.004747
Li	      3.06852      6.96715      4.94819        -0.007450      0.004290      0.001234
Li	      7.56963      5.97947      2.49384        -0.005610     -0.007022      0.005193
Li	      3.02848      5.20209      7.19350        -0.001475      0.005104     -0.002456
Li	      1.55643      4.13469      4.68633         0.006729      0.000294      0.002614
Li	      2.81954      1.72451      4.67382         0.003846      0.009959     -0.001515
Sc	      4.32701      2.53217      7.26592        -0.007746      0.004330     -0.016088
Sc	      4.49275      6.03629      2.47638         0.007520      0.000452      0.005421
Sc	      6.00405      5.17997      7.12642         0.003538      0.008378     -0.010011
Sc	      4.60082      0.80122      2.58472         0.000070      0.002298      0.019439
Co	      7.67978      7.70287      7.24242        -0.009025     -0.001188     -0.002475
Co	      2.96656      3.40760      2.33962        -0.000680     -0.012953     -0.009467
Ni	      4.45868      4.23957      4.81822         0.002356      0.010366      0.011507
Ni	      0.05808     -0.00081      0.00929         0.011810     -0.013912     -0.004249
Ni	      6.05407      3.40247      2.37274        -0.011715     -0.001652     -0.002523
O	      7.65294      7.81260      3.63822         0.004414     -0.008385     -0.001576
O	      6.30288      8.45180      6.27178         0.002136      0.000860     -0.003301
O	      2.99697      8.49509      6.27201        -0.001946      0.019335      0.004123
O	      4.69780      7.72680      3.55220        -0.001504     -0.009446     -0.003514
O	      3.19665      6.94393      1.13016        -0.008791      0.005493      0.003289
O	      6.12162      6.81763      1.15173         0.002171      0.004174     -0.007420
O	      7.59060      6.20503      6.22060         0.002071     -0.002683      0.005524
O	      4.55537      5.91272      5.96210        -0.001988     -0.003367     -0.013908
O	      3.01475      4.92332      3.43907         0.001479      0.007378      0.007112
O	      5.96530      4.94436      3.56120         0.000817      0.000398      0.003529
O	      4.46488      4.22377      1.26552        -0.000775      0.011421      0.004310
O	      1.44995      4.28777      1.21535        -0.000345      0.009905      0.004651
O	      2.94380      3.26823      6.00710         0.007600     -0.001841      0.002120
O	      5.95837      3.35319      6.12918        -0.000772     -0.009228      0.001453
O	      4.35742      2.67530      3.46559         0.004310     -0.008838     -0.004578
O	      1.65238      2.65765      3.33696        -0.000186     -0.002509     -0.001015
O	      5.97047      1.74925      1.20649         0.004327     -0.005097      0.001499
O	      3.09461      1.85899      1.17043        -0.001073     -0.010263     -0.010881
