# total energy = -221.24946686 eV
 
CRYSTAL
PRIMVEC
5.978742 -0.037268 0.069867 
1.595801 7.753665 -0.016573 
1.492409 2.544789 7.303523 
PRIMCOORD
36 1
Li	      7.64491      9.21660      5.04309        -0.000162     -0.002752      0.001663
Li	      3.10083      8.60546      2.49133         0.003060     -0.004816     -0.002137
Li	      4.47113      7.76645      7.31141        -0.009533      0.002068     -0.000200
Li	      6.06178      6.87706      4.91124        -0.005326      0.003653     -0.000892
Li	      3.00599      6.94514      4.94258         0.001896      0.003314      0.002033
Li	      7.49478      5.98496      2.72968        -0.001290     -0.001680      0.004175
Li	      3.05395      5.14325      7.21927        -0.001229     -0.003534      0.002066
Li	      1.60781      4.24926      4.74690         0.006881     -0.000204     -0.001662
Li	      2.85990      1.71384      4.75370         0.000339      0.002694     -0.003224
Sc	      4.40315      6.05379      2.52880         0.001341      0.012746     -0.002457
Sc	      5.96712      5.14162      7.22917         0.010850     -0.002215      0.007960
Sc	      4.52892      0.78947      2.60480         0.001638     -0.010236      0.002199
Sc	      6.15765      3.38926      2.49043         0.005221     -0.007710     -0.008676
Co	      7.59891      7.70529      7.28240        -0.005103     -0.004587      0.015852
Co	      2.99903      3.43584      2.42447        -0.017510     -0.011336     -0.012623
Ni	      4.49155      2.48599      7.27528         0.005206     -0.003603      0.000817
Ni	      4.45513      4.22068      4.87506        -0.002723     -0.008674      0.003929
Ni	      1.55714      2.53915      7.28980        -0.002844     -0.001476     -0.000743
O	      7.54287      7.73239      3.66475        -0.010804      0.002354     -0.002590
O	      6.26228      8.42934      6.33057        -0.003659      0.000950     -0.005022
O	      2.95944      8.51032      6.26789         0.012867      0.001291     -0.007470
O	      4.58736      7.71284      3.63820         0.005778     -0.003452     -0.008129
O	      3.21204      7.00353      1.06767         0.009782     -0.002976      0.002820
O	      5.99391      6.84128      1.16853         0.001000      0.002511     -0.003486
O	      7.54705      6.14734      6.28689        -0.002348     -0.002235      0.000834
O	      4.50426      5.79826      5.97295        -0.001643      0.004629      0.003224
O	      2.98969      4.99686      3.55296        -0.000601      0.002991      0.005223
O	      5.87748      5.04235      3.73054         0.000989      0.001848     -0.000149
O	      4.53200      4.27351      1.26298        -0.002493     -0.004743      0.001053
O	      1.52029      4.38987      1.23431        -0.005052     -0.000023      0.009730
O	      3.16065      3.29372      6.10775        -0.001936      0.001083     -0.004553
O	      5.92096      3.28585      6.20583        -0.001126      0.005318     -0.001397
O	      4.38801      2.67731      3.59500        -0.000524      0.008659     -0.000744
O	      1.64656      2.65195      3.53883         0.006969      0.008353     -0.002658
O	      5.92858      1.69873      1.24597         0.001888      0.006436      0.007583
O	      3.06407      1.85213      1.29392         0.000200      0.005356     -0.002355
