# total energy = -221.70308331 eV
 
CRYSTAL
PRIMVEC
5.998621 -0.004264 -0.001165 
1.644400 7.783687 0.014053 
1.424243 2.608779 7.387192 
PRIMCOORD
36 1
Li	      7.64573      9.28255      5.03372        -0.013457     -0.006350      0.008896
Li	      1.43510      0.89094      2.52363         0.003302      0.007962     -0.005300
Li	      4.52001      7.78150      7.30323         0.019326      0.008212     -0.004759
Li	      6.09859      6.99181      4.91112        -0.001115     -0.009187     -0.000532
Li	      3.04258      7.06020      5.08120         0.008701     -0.006432     -0.007599
Li	      7.52505      6.06815      2.62999         0.000623      0.003590      0.010390
Li	      3.01145      5.30833      7.33185         0.004383     -0.001023     -0.008693
Li	      1.48116      4.31744      4.72111        -0.001471      0.004060      0.001764
Li	      4.41610      9.44675      4.76748        -0.003752      0.009708     -0.003608
Sc	      4.54729      6.12500      2.47579        -0.005843      0.004067     -0.006782
Sc	      5.95847      5.30337      7.37019         0.001999      0.008297      0.009714
Sc	      4.44742      4.31874      4.96334        -0.013018     -0.010313     -0.012538
Sc	      3.19406     10.37402      7.38155         0.016296     -0.001531      0.006529
Co	      7.69790      7.78739      7.32751         0.002706      0.013528      0.013320
Co	      2.96112      3.41613      2.46722         0.010434      0.007406     -0.002158
Ni	      6.08020     10.34868      7.38944         0.003448      0.000745      0.007303
Ni	      4.53524      0.84728      2.61977         0.006600     -0.004769      0.000001
Ni	      6.01770      3.43414      2.47127        -0.007699     -0.006227      0.005700
O	      7.52763      7.87464      3.67748        -0.011666      0.005067     -0.006990
O	      6.33365      8.52646      6.43687         0.006856      0.000764      0.016092
O	      3.09783      8.67035      6.21599        -0.001601     -0.020382     -0.004349
O	      4.68473      7.82445      3.60263        -0.006889      0.002000      0.005848
O	      3.19022      6.97272      1.19984        -0.012244      0.005900     -0.006791
O	      6.13722      6.84398      1.19735        -0.003486     -0.008752      0.004809
O	      7.52876      6.21755      6.32040         0.000462     -0.011549     -0.002853
O	      4.51224      5.98814      6.12092        -0.000714     -0.010693     -0.001925
O	      3.02426      5.02904      3.53457         0.005280     -0.005908     -0.003344
O	      5.92989      5.11221      3.69103         0.005773     -0.003253      0.007025
O	      4.36559      4.23599      1.37801        -0.013928     -0.007125      0.006609
O	      1.38508      4.36021      1.17810         0.006139     -0.004443     -0.004416
O	      2.98605      3.43150      6.17265        -0.002933      0.011127      0.001169
O	      5.93113      3.49285      6.21832         0.006292     -0.000069     -0.005350
O	      4.33325      2.63587      3.55131         0.004351      0.012223      0.001132
O	      1.62508      2.72915      3.47474         0.001160      0.009407     -0.007888
O	      5.86251      1.66709      1.29189        -0.017948      0.003703     -0.006887
O	      3.05827      1.88517      1.34616         0.003632      0.000239     -0.003539
