# total energy = -221.79967515 eV
 
CRYSTAL
PRIMVEC
6.003467 0.042675 -0.015983 
1.706766 7.759127 -0.055734 
1.427138 2.544603 7.362937 
PRIMCOORD
36 1
Li	      7.68474      9.30524      4.99909         0.007080      0.001433      0.002305
Li	      3.13929      8.59917      2.44597        -0.006391     -0.001828     -0.003027
Li	      4.63177      7.77938      7.21002         0.003387      0.009064     -0.008946
Li	      6.16832      7.04475      4.93328         0.005403     -0.001565     -0.002224
Li	      3.09906      7.03810      4.88025         0.003089      0.008118      0.003665
Li	      7.55033      5.98415      2.51868        -0.006868     -0.000851      0.019824
Li	      1.57603      2.65678      0.00436         0.002497     -0.002386     -0.006627
Li	      1.50311      4.18463      4.72219        -0.001898     -0.004300      0.011906
Li	      4.45125      9.42809      4.74587        -0.003874      0.007058     -0.005187
Sc	      4.47533      6.09808      2.39882         0.000841      0.015217     -0.001952
Sc	      6.01509      5.24601      7.26746         0.001665     -0.008240     -0.009298
Sc	      4.41196      4.25705      4.94251         0.012247     -0.016274      0.006147
Sc	      4.57076      0.79770      2.57127        -0.012321     -0.008491     -0.002888
Co	      7.84767      7.86061      7.20256         0.016041      0.021148      0.001001
Co	      2.95392      3.42411      2.38290        -0.004531     -0.010619      0.006768
Ni	      6.10856     10.29751      7.27248         0.000489      0.002782     -0.000826
Ni	      1.53549      2.58028      7.33453         0.002003     -0.004044      0.002983
Ni	      6.04064      3.43957      2.40151         0.005454     -0.015822     -0.006114
O	      7.65992      7.83514      3.67034        -0.000289     -0.010634      0.002911
O	      6.37360      8.52015      6.33860         0.003904     -0.003817     -0.002157
O	      3.14426      8.59470      6.18932        -0.008308     -0.008904      0.004649
O	      4.70487      7.72546      3.57407         0.012166     -0.001841     -0.007864
O	      3.22009      6.97831      1.09997        -0.005921      0.001345      0.001915
O	      6.16851      6.83800      1.14725        -0.008857      0.001449      0.005336
O	      7.57114      6.26663      6.32675        -0.003474     -0.011468     -0.000719
O	      4.58558      5.95639      6.01906         0.000865      0.005874      0.011847
O	      3.02452      5.00428      3.49941        -0.004393     -0.003515     -0.002306
O	      5.95269      4.97455      3.55521        -0.009199      0.006419      0.011212
O	      4.39530      4.21084      1.35657        -0.011676      0.001836     -0.014131
O	      1.48113      4.28797      1.26105        -0.000201      0.001368      0.005058
O	      2.97020      3.35982      6.08848         0.012464      0.007459     -0.010478
O	      5.95933      3.44336      6.16906        -0.009938      0.013340     -0.008724
O	      4.36863      2.64856      3.50699        -0.000562      0.000579     -0.001378
O	      1.62437      2.69596      3.39831         0.004306      0.000498      0.001017
O	      5.98527      1.79662      1.25059        -0.005783      0.003822      0.005749
O	      3.07923      1.90433      1.23534         0.010583      0.005788     -0.009449
