# total energy = -221.55292843 eV
 
CRYSTAL
PRIMVEC
6.018055 0.035296 -0.018746 
1.701154 7.711000 -0.084173 
1.423899 2.500407 7.364437 
PRIMCOORD
36 1
Li	      7.72509      9.20508      5.00592        -0.004661     -0.007286      0.007210
Li	      3.10875      8.44314      2.51026        -0.007794     -0.000006     -0.009421
Li	      4.53576      7.65074      7.26018         0.007738     -0.002829     -0.000234
Li	      6.15955      6.91332      4.85449         0.009647     -0.009287      0.003955
Li	      3.13443      7.02589      4.85331         0.009210     -0.001865      0.003978
Li	      1.64102      5.96642      2.47118         0.001002      0.004922      0.012411
Li	      3.01783      5.16012      7.28610         0.005304      0.005220     -0.006766
Li	      1.52516      4.19981      4.71412        -0.002724      0.021918     -0.007502
Li	      4.39650      9.34328      4.72303        -0.004843      0.021614     -0.006978
Sc	      4.61321      7.70663     -0.05623         0.000901     -0.015051     -0.019211
Sc	      6.05333      5.20287      7.25714         0.007760      0.004976     -0.000952
Sc	      4.45748      4.30959      4.84872        -0.002758      0.003110      0.002142
Sc	      4.54389      0.74279      2.61176        -0.004416     -0.010641     -0.011534
Co	      7.79727      7.70075      7.23785        -0.005396     -0.013897     -0.008407
Co	      2.97664      3.38152      2.38242         0.009945      0.000615     -0.021678
Ni	      4.54115      5.99161      2.42987         0.015193     -0.014016     -0.015192
Ni	      1.49432      2.52332      7.34320        -0.019289     -0.000271      0.008207
Ni	      6.06134      3.41279      2.38553        -0.018265      0.006853     -0.007096
O	      7.65558      7.78634      3.67078         0.021574     -0.007986      0.014709
O	      6.38526      8.39380      6.33475         0.000207      0.007049      0.023267
O	      3.14620      8.56924      6.19010         0.003505     -0.008029      0.015566
O	      4.67670      7.65923      3.56559        -0.006696      0.016400      0.006396
O	      3.21165      6.89808      1.14018        -0.012475      0.004902      0.006282
O	      6.21105      6.82660      1.09831        -0.001564     -0.009559     -0.002459
O	      7.61276      6.13335      6.23728         0.013861      0.003463      0.011458
O	      4.58864      5.91561      6.04277        -0.009185     -0.008625     -0.000822
O	      3.01259      4.93379      3.44658        -0.007527      0.001429      0.006881
O	      5.96264      5.01342      3.55075        -0.011810      0.007065      0.002286
O	      4.41655      4.19728      1.36242        -0.004966     -0.001727     -0.015696
O	      1.43820      4.30651      1.14230         0.013474      0.003108     -0.004883
O	      3.00431      3.32529      6.07363         0.010111     -0.006393      0.003598
O	      5.93818      3.40159      6.13718        -0.010647     -0.002873     -0.003775
O	      4.34578      2.62628      3.49089         0.002015      0.003542      0.014662
O	      1.63269      2.66938      3.37466         0.007556     -0.008503      0.008398
O	      5.97910      1.71804      1.20642         0.007570      0.003722      0.006465
O	      3.09718      1.84599      1.19672        -0.011557      0.008938     -0.015262
