# total energy = -221.41239244 eV
 
CRYSTAL
PRIMVEC
6.063479 -0.014342 -0.000835 
1.649363 7.628898 -0.054546 
1.435127 2.487543 7.322160 
PRIMCOORD
36 1
Li	      7.68101      9.02488      4.95056         0.000135     -0.009333      0.009104
Li	      3.08977      8.34414      2.59513         0.003599      0.000910      0.007022
Li	      4.52717      7.45730      7.21915         0.000573      0.002148     -0.000421
Li	      6.04798      6.68344      4.90967        -0.003646     -0.004406      0.006861
Li	      3.02500      6.86533      4.74998         0.010016      0.009793     -0.002116
Li	      1.65361      5.93486      2.54164        -0.006520     -0.006703      0.011739
Li	      3.10670      5.19898      7.22659        -0.004397      0.000927     -0.002675
Li	      1.63313      4.16205      4.83352         0.003918      0.002046     -0.002993
Li	      2.87489      1.74495      4.65958         0.004350      0.004996     -0.009286
Sc	      4.46569      2.51248      7.24674         0.004919     -0.006133     -0.000208
Sc	      1.51264      2.47294      7.28210        -0.008188     -0.007273     -0.004096
Sc	      4.53012      0.71978      2.61864        -0.010349      0.009206      0.003103
Sc	      6.16728      3.39698      2.43975         0.004612     -0.000412      0.012460
Co	      7.61496      7.53051      7.26992         0.008114     -0.011170     -0.009440
Co	      3.03992      3.40388      2.38219        -0.002114     -0.005183      0.000577
Ni	      4.50836      5.93229      2.44337         0.004370     -0.005572     -0.001518
Ni	      6.01302      5.06824      7.27539        -0.011317     -0.003735     -0.011432
Ni	      4.50815      4.23226      4.84537         0.006508      0.002660      0.002808
O	      7.63219      7.63893      3.61520         0.008547      0.001106      0.002400
O	      6.31368      8.32472      6.24812        -0.000177     -0.007201      0.002311
O	      2.92759      8.27622      6.22581        -0.006811     -0.003658      0.001890
O	      4.59363      7.52932      3.57036         0.005078      0.000714     -0.000281
O	      3.23147      6.88114      1.16384         0.004674      0.005580      0.001275
O	      6.18812      6.71339      1.09682        -0.001099     -0.004420     -0.007233
O	      7.49532      5.97743      6.34127        -0.006572     -0.003875      0.001246
O	      4.67699      5.77618      6.14298         0.002673      0.000918      0.000974
O	      3.05909      4.92447      3.52084        -0.006086      0.013572      0.002947
O	      5.90229      5.09214      3.56761         0.003166     -0.000364     -0.002155
O	      4.57046      4.31476      1.24747        -0.004906      0.012476      0.013227
O	      1.48852      4.27717      1.19499        -0.002530      0.003561     -0.001489
O	      2.98010      3.21990      6.05995        -0.001453     -0.003203     -0.007873
O	      6.04979      3.32757      6.08600        -0.007488     -0.007165     -0.003409
O	      4.41067      2.58913      3.52135         0.000682      0.005673     -0.008498
O	      1.65613      2.60152      3.43457         0.000951      0.010590     -0.009708
O	      5.88343      1.69772      1.16578         0.000076      0.002809      0.006859
O	      3.16536      1.84605      1.13208         0.006694      0.000122     -0.001971
