# total energy = -221.24706895 eV
 
CRYSTAL
PRIMVEC
6.058321 -0.012112 -0.021150 
1.649850 7.699149 -0.027290 
1.409636 2.544876 7.331316 
PRIMCOORD
36 1
Li	      7.66508      9.20163      4.88802        -0.005407     -0.000586     -0.000417
Li	      3.15645      8.48408      2.56983        -0.000137     -0.000228     -0.000189
Li	      4.53065      7.57166      7.24123        -0.002354     -0.000491      0.003099
Li	      6.10155      6.83015      4.85178        -0.003188     -0.001415     -0.002096
Li	      2.98971      7.01965      4.79704         0.000241     -0.000362     -0.001440
Li	      1.60312      6.04411      2.53383         0.008037      0.006981      0.000307
Li	      3.01077      5.25139      7.21841         0.006154     -0.008670      0.000797
Li	      1.51161      4.29854      4.74878         0.006964      0.008941      0.004048
Li	      2.80041      1.65744      4.70251        -0.004647     -0.004153     -0.003306
Sc	      4.67946      7.69396      0.05827        -0.005369      0.006993     -0.006174
Sc	      4.47200      4.33141      4.88122        -0.006330     -0.000308      0.002334
Sc	      1.48196      2.52009      7.28522        -0.002007      0.001536     -0.007068
Sc	      6.12117      3.39326      2.42712         0.004761      0.000743     -0.001498
Co	      7.68677      7.63521      7.18349        -0.017744      0.014755     -0.011227
Co	      3.05372      3.38060      2.42465        -0.000466     -0.001682      0.003850
Ni	      4.54358      5.98968      2.44089         0.000715      0.003507     -0.001581
Ni	      5.97106      5.15667      7.30773        -0.009082     -0.000279     -0.000730
Ni	      4.51875      0.77711      2.63519        -0.005816     -0.002125     -0.003327
O	      7.59083      7.77313      3.55465         0.010468      0.000830      0.000033
O	      6.33481      8.42157      6.31007         0.011684     -0.006773      0.003465
O	      3.05280      8.51751      6.10306         0.005899      0.003969     -0.000279
O	      4.71384      7.69242      3.54401        -0.008592      0.002679      0.003675
O	      3.17236      6.92410      1.16738         0.000059     -0.002715      0.001150
O	      6.20570      6.74072      1.13717        -0.003852     -0.002917     -0.002102
O	      7.49996      6.06484      6.24009         0.001613     -0.013364     -0.006924
O	      4.61159      5.90411      6.16853         0.001234      0.004213      0.005669
O	      3.03552      5.00547      3.53130         0.001556     -0.007724      0.005555
O	      5.97741      5.03969      3.64287         0.004535      0.001963      0.001732
O	      4.39883      4.18310      1.32363        -0.003018     -0.005934      0.001146
O	      1.37769      4.30746      1.10042         0.002297     -0.002542      0.008398
O	      3.00721      3.36296      6.14521         0.002576     -0.008228      0.004927
O	      5.94882      3.39918      6.13500         0.004406     -0.000946     -0.005943
O	      4.43864      2.58212      3.57443         0.001792      0.006927     -0.006192
O	      1.62134      2.63938      3.46398        -0.002327      0.003931     -0.000309
O	      5.81895      1.70483      1.16334         0.005430      0.000268      0.008258
O	      3.14820      1.78314      1.28583        -0.000085      0.003209      0.002360
