# total energy = -221.32290826 eV
 
CRYSTAL
PRIMVEC
6.015009 0.038533 -0.030503 
1.704670 7.708385 -0.022022 
1.410233 2.562412 7.363479 
PRIMCOORD
36 1
Li	      7.69646      9.25222      4.90298         0.005287      0.002835     -0.002544
Li	      3.16128      8.48879      2.49453        -0.008707     -0.003129      0.001772
Li	      4.57931      7.75073      7.28871        -0.001373      0.006288     -0.001899
Li	      6.11271      6.90228      4.86807         0.004415      0.000020     -0.007639
Li	      3.12077      6.99200      4.78618         0.002644     -0.007637      0.004329
Li	      1.56683      5.95547      2.67984        -0.001516     -0.000243     -0.004846
Li	      3.01247      5.20317      7.33964         0.003077     -0.001253     -0.005094
Li	      1.53489      4.24818      4.81672         0.002149      0.008875     -0.006257
Li	      2.76337      1.72109      4.86570        -0.004413      0.003954     -0.001917
Sc	      5.91527      5.26500      7.31722         0.001927      0.002701      0.004122
Sc	      4.39395      4.31511      4.90756        -0.010741     -0.004957      0.008520
Sc	      4.48188      0.77347      2.53776        -0.004388     -0.009793      0.003832
Sc	      6.17212      3.43593      2.41856        -0.007934      0.006767      0.004319
Co	      7.80632      7.83685      7.14250         0.000314     -0.009181      0.006622
Co	      3.00111      3.44943      2.43267         0.000928     -0.004049     -0.004908
Ni	      6.13931     10.24755      7.28950        -0.016575      0.001193      0.001274
Ni	      4.51734      5.99164      2.43322         0.004828      0.010332     -0.007422
Ni	      1.49611      2.59571      7.35924         0.007667     -0.014990     -0.006634
O	      7.62617      7.73680      3.60536        -0.000226      0.007193     -0.003954
O	      6.35547      8.48685      6.26070        -0.008437      0.001560     -0.013725
O	      3.12858      8.58296      6.19114        -0.005103      0.001187      0.003764
O	      4.63142      7.59129      3.52322        -0.000761      0.002431      0.005329
O	      3.40291      6.94354      1.07974        -0.009047      0.002389     -0.005473
O	      6.13167      6.83586      1.02330         0.015063      0.001362     -0.004590
O	      7.51954      6.20863      6.32902         0.001975     -0.003692      0.005388
O	      4.50663      5.95148      6.07068         0.005652      0.016200      0.014556
O	      3.00063      5.01474      3.55996        -0.005277      0.018129     -0.004259
O	      5.89754      5.11717      3.61472         0.004067      0.001630     -0.004244
O	      4.39953      4.29722      1.37494        -0.002183     -0.000688     -0.001157
O	      1.49643      4.36295      1.22769         0.012677      0.001101     -0.007292
O	      3.03512      3.32520      6.20009         0.001468     -0.008394      0.012569
O	      5.87543      3.42872      6.20726         0.010402     -0.002897      0.007989
O	      4.42605      2.61900      3.55484        -0.001106     -0.009682      0.000225
O	      1.63211      2.65986      3.57081         0.002982     -0.012303      0.009123
O	      5.94283      1.72863      1.21003         0.007899     -0.005077     -0.000561
O	      3.06705      1.88185      1.24927        -0.007635      0.001814      0.000682
