# total energy = -221.48922358 eV
 
CRYSTAL
PRIMVEC
6.022857 -0.060227 0.080348 
1.578376 7.749521 -0.035938 
1.505506 2.519272 7.295963 
PRIMCOORD
36 1
Li	      7.67045      9.19117      5.03689         0.005068     -0.007731     -0.000538
Li	      3.04936      8.48109      2.55809         0.001416      0.003964     -0.002045
Li	      4.49676      7.64166      7.24506         0.004548     -0.005959     -0.005562
Li	      6.09798      6.80394      4.97902         0.003955     -0.001247      0.005639
Li	      2.89454      6.99760      4.83746        -0.004157     -0.011778     -0.002457
Li	      1.59936      6.09251      2.45220         0.005455      0.002720     -0.011771
Li	      3.06833      5.16934      7.18109         0.002708     -0.001201      0.001874
Li	      1.57317      4.22546      4.87586        -0.002919      0.006646      0.003265
Li	      2.85039      1.65800      4.77228        -0.009143     -0.000712      0.001112
Sc	      4.49932      2.52760      7.24360         0.003583      0.000855     -0.003234
Sc	      4.41309      6.03965      2.52906         0.003415     -0.011214      0.013164
Sc	      4.58925      0.74888      2.64293         0.013687      0.006995      0.000252
Sc	      6.10646      3.40099      2.45185        -0.014825     -0.001109     -0.005615
Co	      7.60466      7.62597      7.31464        -0.004304      0.008709     -0.003750
Co	      2.94738      3.36569      2.46327         0.004489      0.007359      0.007376
Ni	      6.08468      5.06949      7.26295        -0.007785     -0.005396      0.009051
Ni	      4.53364      4.21277      4.88959         0.000597     -0.002260      0.000812
Ni	      1.55219      2.49994      7.26793        -0.005833     -0.005303     -0.000975
O	      7.57350      7.71799      3.68600        -0.017254      0.004237     -0.005465
O	      6.27885      8.41253      6.30408         0.007093     -0.010685      0.004792
O	      2.95566      8.45354      6.23415         0.009673     -0.000026     -0.008521
O	      4.58690      7.71677      3.63957        -0.004286      0.006978      0.002932
O	      3.11809      6.97201      1.18339         0.010521      0.001875     -0.004340
O	      6.06378      6.78697      1.23114        -0.005779      0.004659      0.003537
O	      7.52925      6.06407      6.33199         0.001869     -0.002510     -0.010162
O	      4.70840      5.72678      6.10507         0.006921      0.005155      0.001199
O	      3.02719      5.01275      3.58181         0.002036      0.010427     -0.001440
O	      5.89275      5.01641      3.73197        -0.000289      0.009781     -0.002845
O	      4.60390      4.30594      1.22554         0.011715      0.001367      0.002081
O	      1.46864      4.36223      1.17325         0.003544      0.002751      0.010738
O	      3.09819      3.33507      5.99654        -0.005545     -0.002961      0.002361
O	      6.10349      3.31299      6.11984         0.000998     -0.005441     -0.001906
O	      4.46693      2.62547      3.61301        -0.002925      0.002174     -0.008257
O	      1.62049      2.57949      3.42783        -0.009204     -0.007604      0.004732
O	      5.91081      1.70797      1.17733        -0.005177     -0.000888     -0.001029
O	      3.18730      1.79207      1.16373        -0.003865     -0.002626      0.004993
