# total energy = -221.52223323 eV
 
CRYSTAL
PRIMVEC
5.988587 -0.025714 0.012460 
1.613964 7.664593 -0.058418 
1.428671 2.492054 7.347172 
PRIMCOORD
36 1
Li	      7.59226      9.10153      5.00587        -0.000846     -0.001427      0.006224
Li	      3.06168      8.36070      2.60232         0.003865      0.001544     -0.002518
Li	      4.43588      7.50276      7.27887        -0.002404     -0.000869     -0.002979
Li	      6.04354      6.78492      4.92546        -0.003846     -0.007108      0.006055
Li	      2.96417      6.96432      4.78857         0.010555      0.000960      0.003693
Li	      1.66391      5.97636      2.47340         0.002581     -0.000915      0.000894
Li	      2.99696      5.15390      7.29158         0.000002      0.001250     -0.002434
Li	      1.53113      4.10301      4.87405         0.000309      0.001176      0.000301
Li	      2.80252      1.69668      4.72190         0.000057     -0.000151      0.000966
Sc	      4.53905      7.63336     -0.06163        -0.000969      0.006252     -0.010995
Sc	      4.43363      4.27444      4.89370         0.001947     -0.005105      0.015709
Sc	      4.51938      0.69818      2.59549        -0.014769      0.008593     -0.014066
Sc	      6.12738      3.37814      2.39861        -0.004648      0.003750     -0.001437
Co	      7.54105      7.57778      7.29390        -0.003959     -0.002158      0.010029
Co	      3.01443      3.40034      2.36975         0.012395     -0.001002     -0.021321
Ni	      4.46522      5.94758      2.45209        -0.001747     -0.006034     -0.002926
Ni	      5.96109      5.07886      7.30125        -0.015099     -0.001614     -0.003857
Ni	      1.45761      2.48160      7.30353        -0.007502      0.003509     -0.006525
O	      7.53985      7.68378      3.66205         0.012768     -0.011772      0.011912
O	      6.22536      8.35181      6.28623        -0.002277     -0.002351     -0.002866
O	      2.90750      8.36306      6.26701         0.008903      0.002656     -0.015083
O	      4.55953      7.55332      3.58229        -0.000571     -0.004740      0.006985
O	      3.15603      6.87321      1.23377        -0.001437      0.006891     -0.001027
O	      6.10111      6.71058      1.11043         0.007003      0.001097      0.003965
O	      7.41843      6.01434      6.35115        -0.000949      0.002843     -0.009877
O	      4.59841      5.83233      6.17751         0.004024      0.004107     -0.007364
O	      2.99654      4.93772      3.53055        -0.011963      0.002452      0.000575
O	      5.85982      5.06128      3.58204         0.009437      0.003226      0.012247
O	      4.49921      4.30925      1.26802        -0.002394     -0.001924      0.005240
O	      1.50260      4.28597      1.17531        -0.001092      0.003981      0.009787
O	      2.96946      3.24546      6.07062         0.000206      0.000095     -0.001669
O	      5.93360      3.33478      6.09674         0.001817      0.000943      0.001998
O	      4.39076      2.57724      3.50926         0.003829      0.008023     -0.003081
O	      1.64574      2.58445      3.43306        -0.009885     -0.005160      0.012551
O	      5.84617      1.70359      1.11140         0.001703     -0.005279     -0.001063
O	      3.13541      1.84280      1.14138         0.004957     -0.005738      0.001958
