# total energy = -228.45578341 eV
 
CRYSTAL
PRIMVEC
6.062909 -0.025035 0.057039 
1.428974 7.715530 0.006895 
1.610432 2.502561 7.340870 
PRIMCOORD
36 1
Li	     -0.13264      0.12630      0.09367        -0.025437     -0.000343      0.001532
Li	      3.06643      0.03169      0.04420        -0.002522      0.002522     -0.008335
Li	      3.23898      1.78927      4.99232        -0.000103     -0.001068     -0.007806
Li	      6.02335      8.35760      2.43025        -0.004794      0.007778      0.008420
Li	      6.05836      6.71815      4.91848        -0.002667     -0.001492      0.003761
Li	      7.50623      5.99373      2.46061        -0.000203      0.004437      0.000555
Li	      6.04499      4.99908      7.25156        -0.006006      0.005542      0.001314
Li	      1.52120      2.45635      0.07953         0.003390      0.001062      0.001268
Li	      3.04729      3.36774      2.62919        -0.000858      0.003574      0.002336
Sc	      2.96538      5.11562      0.02853         0.006539     -0.010469      0.003069
Sc	      5.97673      5.18731      0.03466         0.000640      0.000529      0.011726
Sc	      6.08124      3.34703      2.52601         0.000985     -0.002416      0.015778
Sc	      3.05855      6.77646      4.77427         0.006517      0.000637      0.001725
Co	      1.59915      0.77106      2.31852         0.015776      0.010660     -0.005323
Co	      4.48672      5.95350      2.43538        -0.007314     -0.002173     -0.004759
Co	      1.62626      4.16026      5.12743         0.006899     -0.011462      0.002298
Co	      4.58229      4.27213      4.96126         0.014689      0.001426      0.004265
Ni	      6.11379      1.70461      4.99018         0.007021      0.017688     -0.004307
O	      6.08585      8.41229      6.13545         0.000598     -0.001858     -0.007306
O	      3.07239      8.45194      6.13521         0.000247     -0.000488     -0.006608
O	      7.79555      7.83505      3.61336        -0.002766     -0.010699     -0.000255
O	      4.42874      7.58795      3.43763         0.004989     -0.002524     -0.006358
O	      3.10331      6.74687      1.30643         0.010564     -0.008000      0.009403
O	      5.90567      6.72687      1.32740        -0.000603     -0.000363      0.002974
O	      7.58928      5.86296      5.99190         0.001858     -0.002201      0.006173
O	      4.54634      5.91463      6.06310        -0.002278      0.006391     -0.011497
O	      3.07471      5.14658      3.57792        -0.002559      0.003694     -0.004466
O	      5.79865      5.14318      3.66677        -0.005512      0.003441     -0.003064
O	      4.51441      4.26743      1.27785         0.003177      0.006384      0.007860
O	      1.39451      4.28256      1.14860         0.000133      0.003910     -0.006321
O	      3.20568      3.50373      6.02552        -0.008354      0.001126     -0.009252
O	      6.18479      3.38769      6.19748         0.001005     -0.004591     -0.004786
O	      4.63508      2.67564      3.87702         0.004493     -0.005047     -0.002643
O	      1.49905      2.78061      3.81681        -0.004116      0.001829      0.013002
O	      6.20001      1.58476      1.42594         0.002087     -0.010713     -0.007933
O	      2.83309      1.61269      1.44199        -0.015514     -0.006724      0.003559
