# total energy = -102.22399242 eV
 
CRYSTAL
PRIMVEC
-0.000156 2.091207 2.091454 
8.861107 -4.283767 4.283556 
2.133669 4.174580 -2.083756 
PRIMCOORD
16 1
Li	      0.35776      2.03342      2.14329        -0.027772     -0.020830      0.022890
Li	      2.29133      1.87408      0.21149         0.008848      0.030915     -0.028529
Li	      2.09707      0.17199      1.91235        -0.009875     -0.032112      0.028505
Li	      4.02954      2.10386      2.07285         0.027391      0.019432     -0.023888
Ti	      6.36636      2.01830      0.06707        -0.811652      0.094102     -0.096405
Ti	      9.01485     -0.08183      4.25774         0.802703     -0.092801      0.094763
Ni	      6.58281     -0.09462      2.17991        -0.036236      0.061993     -0.063834
Ni	      6.66394     -2.14328      4.22899         0.036977     -0.063894      0.061030
O	      6.71139      2.04223      2.13376        -0.075409      0.107652     -0.103828
O	      6.62296     -0.07338      4.25018         0.000443      0.000102      0.000616
O	      8.66883     -0.10572      2.19126         0.076743     -0.105910      0.104248
O	      8.71004     -2.01417      4.09876         0.118367      0.139299     -0.134197
O	      1.91399      4.26001     -0.08297        -0.768061     -0.008070      0.005619
O	      2.19355      2.06862      2.10769         0.000418      0.000677      0.001159
O	      4.60571      1.96076      0.12380         0.775349      0.007575     -0.003388
O	      4.53692     -0.22381      2.30968        -0.118234     -0.138128      0.135241
