# total energy = -228.39210912 eV
 
CRYSTAL
PRIMVEC
6.032602 -0.038836 0.053924 
1.403405 7.768675 -0.003272 
1.593795 2.508703 7.366976 
PRIMCOORD
36 1
Li	      0.08566      0.16148      0.00572         0.003668      0.012183     -0.005412
Li	      2.94165      0.00921      0.09692         0.003544      0.002801      0.001171
Li	      3.10955      1.74606      4.87420         0.004919     -0.008509      0.004756
Li	      5.93899      8.51117      2.44894         0.004908      0.000356     -0.010063
Li	      5.98651      6.67680      4.95760        -0.002906      0.002899     -0.005259
Li	      7.48827      6.06924      2.53173         0.003408      0.002335     -0.003217
Li	      6.00444      5.04009      7.24563        -0.000750      0.000986     -0.009883
Li	      1.51520      2.47355      0.02468         0.005014     -0.000565      0.007132
Li	      3.03401      3.34855      2.58146        -0.001168     -0.005078     -0.002000
Sc	      6.06672      1.69439      4.98944        -0.003020     -0.000072     -0.005344
Sc	      4.51569      7.63608      7.36164         0.003647      0.003384      0.007839
Sc	      7.55114      7.58346      7.35650        -0.008957     -0.011808     -0.000182
Sc	      6.01367      3.36437      2.47277        -0.010608     -0.002871     -0.004158
Co	      2.98413      8.53659      2.35451        -0.000137      0.010387     -0.011612
Co	      4.49955      6.07217      2.46195         0.013796      0.008292     -0.006319
Co	      1.58973      4.33222      4.96202        -0.006720     -0.005625     -0.003926
Co	      4.47350      4.27407      5.02541        -0.003887     -0.005570      0.000244
Ni	      3.03975      6.85718      4.87853        -0.007747     -0.009577      0.004291
O	      6.07858      8.48920      6.18331         0.004823      0.006510     -0.008742
O	      2.99084      8.57409      6.17696        -0.001251     -0.001192     -0.000710
O	      7.74053      7.84619      3.63048        -0.006264     -0.007771      0.013100
O	      4.32524      7.73167      3.53540         0.003436     -0.013204      0.014952
O	      2.99373      6.79174      1.30793         0.004761     -0.003708      0.005404
O	      5.82144      6.70732      1.35537        -0.002423      0.004183      0.004730
O	      7.56814      5.89600      6.05196        -0.001154      0.008796      0.000117
O	      4.51402      5.99259      6.12642        -0.002827      0.005727     -0.001013
O	      3.02079      5.11491      3.77084        -0.002759      0.000783     -0.000682
O	      5.83336      5.10128      3.73506         0.000877     -0.001675      0.006855
O	      4.47422      4.21405      1.22522         0.001161      0.010940     -0.003152
O	      1.39013      4.31232      1.15734         0.008788     -0.001441     -0.001691
O	      3.21047      3.44444      6.08023        -0.004113     -0.008718      0.004285
O	      6.18739      3.48543      6.08869        -0.000146      0.011018     -0.002498
O	      4.62586      2.54459      3.77530         0.003788     -0.001368     -0.003200
O	      1.49676      2.77952      3.79544        -0.003903     -0.002075     -0.000899
O	      6.18128      1.56498      1.42764         0.003234      0.002386      0.000417
O	      2.82579      1.56748      1.44039        -0.003029     -0.003138      0.014669
