# total energy = -228.40850592 eV
 
CRYSTAL
PRIMVEC
6.021037 -0.010393 0.040427 
1.437430 7.750681 -0.028878 
1.586491 2.487283 7.329281 
PRIMCOORD
36 1
Li	      0.10616      0.14055      0.02548        -0.015279     -0.006301      0.010163
Li	      3.09776      0.03188      0.18096        -0.012000      0.009512      0.003773
Li	      3.06517      1.77913      4.83916        -0.004952      0.000784     -0.002687
Li	      5.91027      8.45716      2.31222         0.003590      0.000507      0.008241
Li	      6.08930      6.72533      4.94580         0.003195     -0.006430      0.003966
Li	      7.38269      6.12170      2.40733         0.002693     -0.006298      0.005512
Li	      6.00116      5.04611      7.25004        -0.000539      0.000525     -0.005005
Li	      1.53756      2.48343      0.05500        -0.000292     -0.004301     -0.008032
Li	      3.03616      3.30423      2.47370         0.000416      0.002989     -0.003647
Sc	      6.00730      1.63359      4.99600        -0.008624      0.010342     -0.019346
Sc	      2.95831      5.22555      0.04686         0.015490     -0.010000      0.008056
Sc	      6.09079      3.41536      2.37692        -0.007497     -0.007698      0.019897
Sc	      3.01428      6.78812      4.83383         0.006075     -0.003373     -0.022530
Co	      1.54596      0.83049      2.37104        -0.012608     -0.004230      0.021459
Co	      4.44116      6.04348      2.37774         0.000892      0.008068      0.003281
Co	      1.51668      4.27646      5.02161         0.015778     -0.006290      0.002904
Co	      4.56883      4.25994      4.94177        -0.008447     -0.001356      0.021896
Ni	      5.95945      5.15951      0.02577        -0.001680     -0.005139     -0.001078
O	      6.02858      8.48230      6.10454        -0.010946     -0.010742      0.017054
O	      3.03035      8.50666      6.08038        -0.003473      0.000572      0.020485
O	      7.65491      7.75611      3.63867         0.014663     -0.006186      0.005015
O	      4.34372      7.68060      3.41894        -0.005164     -0.007511     -0.002254
O	      2.93690      6.94142      1.24639        -0.007423      0.002640     -0.015500
O	      5.79887      6.70038      1.35521         0.007579      0.005354     -0.012728
O	      7.56164      5.94605      6.07250        -0.000145      0.009511      0.001345
O	      4.54519      5.92244      6.03789        -0.002621      0.015485     -0.003736
O	      3.23850      5.12876      3.62575        -0.001376      0.003664     -0.005708
O	      6.20878      4.98414      3.82386         0.002586      0.008791     -0.000671
O	      4.48386      4.33810      1.28029        -0.002765     -0.007524     -0.016331
O	      1.45991      4.32341      1.15241         0.008293      0.012046     -0.008484
O	      2.93402      3.49987      5.89548         0.006902      0.005820      0.005297
O	      6.06037      3.40454      6.13464         0.010637      0.008553      0.001574
O	      4.63059      2.67730      3.81444         0.010189     -0.015573     -0.013600
O	      1.49906      2.43122      3.58011         0.001557      0.000413     -0.007251
O	      6.15665      1.58588      1.41377        -0.007195     -0.000326     -0.004959
O	      2.85001      1.59434      1.35744         0.002493      0.003704     -0.006371
