# total energy = -206.70505974 eV
 
CRYSTAL
PRIMVEC
5.816465 0.008966 -0.011240 
1.472334 7.559246 0.002799 
1.412600 2.432247 7.123888 
PRIMCOORD
36 1
Li	      2.92015      5.05047      0.05469        -0.001606      0.011347     -0.002662
Li	      1.42016      0.82909      2.39657         0.009052     -0.000045     -0.002492
Li	      2.84164      3.42507      2.39113         0.002671      0.004816      0.010665
Li	      1.48265      5.82362      2.37735         0.002359     -0.003078      0.006839
Li	      4.22636      5.81102      2.39057        -0.004553      0.005452      0.005080
Li	      2.84751      1.67059      4.69547        -0.006466     -0.001705     -0.007786
Li	      5.78722      1.67688      4.66765        -0.001425     -0.004813      0.005473
Li	      4.30110      4.10739      4.68126        -0.009095      0.001781     -0.005667
Li	      1.49120      2.51648      0.05450         0.002702      0.000916     -0.003315
Sc	      5.75876      6.67185      4.69882         0.001706     -0.000844      0.001007
Co	      2.96390      9.91425      7.09288         0.025958      0.009502      0.005202
Co	      5.81655      9.93414      7.09381        -0.020317     -0.004685     -0.006852
Co	      4.31737      2.52057      0.02642        -0.002568      0.010046      0.002804
Co	      5.86014      5.02979      0.03592        -0.000424      0.012979      0.002995
Co	      4.31068      0.83999      2.37880         0.004644      0.006023     -0.013231
Co	      5.82279      3.36796      2.39499         0.001967     -0.003954     -0.016436
Co	      2.87755      6.69518      4.74779         0.000831     -0.012680     -0.008428
Ni	      1.49706      4.10371      4.73236         0.013313     -0.008111      0.005574
O	      3.02423      1.48517      1.13471         0.010525      0.012956     -0.005416
O	      5.73166      1.81406      1.20144         0.005145      0.008773     -0.003316
O	      1.28965      4.19075      1.24785        -0.012542     -0.005121      0.009217
O	      4.54257      4.18709      1.19503         0.002245     -0.014655     -0.001148
O	      5.87170      6.73764      1.00427         0.006383     -0.002200     -0.008834
O	      2.93607      6.80220      0.99788        -0.004740      0.014131     -0.004455
O	      1.33179      2.60662      3.42322        -0.006422     -0.006917      0.002946
O	      4.42750      2.54410      3.36281         0.008378     -0.003669      0.006470
O	      5.80465      4.91810      3.56812        -0.005720      0.002233     -0.006606
O	      2.87242      5.17479      3.70854        -0.013144     -0.007306      0.010108
O	      4.29019      7.55309      3.59794        -0.008714      0.001866     -0.010024
O	      7.14068      7.58869      3.45272         0.011994     -0.003700      0.016289
O	      5.88721      3.19817      6.08869        -0.001551      0.000825     -0.006577
O	      2.86268      3.14162      6.03423        -0.002959     -0.012484      0.017931
O	      4.44952      5.72429      6.06359        -0.002467     -0.005340      0.008755
O	      7.30434      5.89365      5.97219        -0.004653      0.005004      0.003912
O	      2.80944      8.14628      5.95927        -0.003823     -0.000225      0.005291
O	      5.89648      8.30897      6.04474         0.003318     -0.007119     -0.013313
