# total energy = -229.85568769 eV
 
CRYSTAL
PRIMVEC
0.083098 6.306343 6.376104 
6.633197 -0.000242 6.438502 
4.388741 4.225441 0.039906 
PRIMCOORD
36 1
Li	      4.11862      2.19820      2.18479        -0.002158      0.008300      0.011489
Li	      6.54991      2.12632      4.40871         0.002054      0.002587     -0.002990
Li	      2.12979      4.24838      2.04039        -0.004109     -0.004830     -0.004357
Li	      2.22531      2.17188      4.44118         0.000349     -0.006798     -0.003372
Li	      8.76209      6.35641      6.55751        -0.008547     -0.011729     -0.012646
Li	      6.67845      4.21934      6.48372        -0.010962     -0.019701     -0.012279
Li	     -0.08492      4.37273      4.15322        -0.009001     -0.011489      0.007411
Li	      2.22355      6.13766      4.18728        -0.002535     -0.001910      0.001405
Li	      6.86436      6.34752      8.57210        -0.007067     -0.010090      0.010421
Sc	      6.66941      6.22179     12.71121         0.000192     -0.009422      0.006732
Sc	      8.76960      2.08628      6.33690         0.003162     -0.002089      0.001491
Sc	      6.55332      4.15934      2.22538        -0.002745     -0.004305      0.007677
Sc	      4.46440      0.22529      4.19844        -0.004019      0.002599     -0.006715
Sc	     -0.04545      2.08783      2.19677        -0.007233      0.002879      0.000843
Co	      4.57801      4.13751      8.57238         0.001323     -0.001260      0.000278
Cu	      4.50391      4.14431      4.39201         0.004368     -0.001666     -0.010929
Cu	      2.38377      4.16494      6.39458        -0.005417      0.014325      0.000008
Ni	      4.60554      6.37161      6.43854         0.007947      0.009174      0.016345
O	      2.09934      2.04877      1.98913        -0.007406      0.007760      0.001479
O	      4.45005      4.16930      2.02512         0.001805      0.002894      0.000504
O	      4.46941      2.25173      4.30639        -0.003379     -0.002856      0.005094
O	      6.50167      4.20032      4.29526         0.007651     -0.003406      0.004964
O	      6.70984      2.00950      6.47894         0.014764     -0.001540     -0.007932
O	      8.84153      4.15459      6.34467        -0.003943      0.003608      0.008341
O	      2.59901      4.15484      4.53586        -0.000773     -0.003346      0.004321
O	      4.50262      6.03663      4.36980         0.002995      0.000815      0.018254
O	      4.70656      4.30316      6.80829         0.005616      0.001686      0.002633
O	      6.64690      6.53741      6.48302        -0.001901     -0.007139     -0.005608
O	      6.55956      4.14948      8.67039         0.003300      0.013393     -0.002237
O	      8.92884      6.30993      8.64458         0.001308      0.008676     -0.014910
O	      2.23273      6.17641      6.36224         0.009029      0.002125     -0.012159
O	      4.27964      8.38227      6.22812        -0.001186      0.006255      0.002630
O	      4.33682      6.42641      8.54233         0.003611      0.005220     -0.002881
O	      6.93072      8.40569      8.34239         0.000174      0.003306     -0.002333
O	      6.56761      6.36469     10.67301         0.005858      0.004602      0.012238
O	      8.80690      8.53324     10.49610         0.006876      0.003371     -0.023210
