# total energy = -232.10828775 eV
 
CRYSTAL
PRIMVEC
0.044356 6.528131 6.399667 
6.269136 0.024226 6.420100 
4.179562 4.367492 0.017072 
PRIMCOORD
36 1
Li	      6.29297      4.42279      2.31782         0.002145      0.021608     -0.001654
Li	      6.31693      2.25266      4.35228         0.007560      0.000869      0.006566
Li	      4.20530      6.54081      2.27615        -0.011045      0.004370     -0.008101
Li	      6.23566      6.44708      4.32408        -0.004753      0.002012     -0.003961
Li	      4.16928      4.62074      4.26689         0.002451      0.006545      0.004760
Li	      4.10121      2.24217      6.23442        -0.004471      0.003607      0.007717
Li	      4.14661      8.57572      4.21273        -0.004893      0.000901      0.003255
Li	      4.18057      6.47920      6.19520        -0.003563     -0.005651     -0.004292
Li	      8.35927      8.76213      8.66503         0.000790      0.007329      0.005210
Sc	      6.27913      0.12814      6.39532         0.013105     -0.002164      0.004696
Sc	      2.15906      2.15170     -0.02756        -0.002592      0.009638      0.014029
Sc	      4.27595      2.19260      2.27122         0.002667      0.000949     -0.008896
Sc	      2.05644      4.33838      2.34620         0.006378     -0.005442      0.004640
Sc	      6.09490      4.35638      6.40381        -0.002232     -0.011946     -0.001374
Co	      2.17014      4.28478      6.32662        -0.007414     -0.005839     -0.011577
Co	      6.33778      6.54631      8.46868        -0.008252      0.004388      0.005562
Cu	      4.23506      6.52248     10.64170        -0.003585     -0.010263      0.001460
Ni	      2.14627      6.55046      4.25850        -0.004519     -0.002654      0.002192
O	      2.18433      2.24745      2.10847        -0.002844      0.000218     -0.000843
O	      4.16887      4.30085      2.12660        -0.003057     -0.003731      0.002844
O	      4.23322      1.96459      4.28119        -0.001676      0.004454     -0.003059
O	      6.38703      4.34768      4.32066         0.005241      0.000650      0.007411
O	      6.33369      2.20200      6.46787         0.000448      0.013425      0.011103
O	      8.35415      4.32273      6.49590        -0.006772      0.000890      0.009367
O	      2.09478      4.40898      4.39836         0.009615     -0.009596     -0.012411
O	      4.08003      6.58389      4.22810         0.009624     -0.000728     -0.005199
O	      4.07442      4.31096      6.30863         0.008390     -0.001765     -0.003988
O	      6.21902      6.48296      6.49107        -0.008497     -0.004855     -0.008422
O	      6.29487      4.44467      8.49654        -0.001259      0.005429     -0.002328
O	      8.22804      6.49121      8.69046         0.016982      0.007026      0.007378
O	      2.12908      6.61791      6.30103        -0.000532     -0.009422     -0.000203
O	      4.34126      8.81305      6.46436        -0.007119     -0.006678     -0.002381
O	      4.35721      6.57566      8.63649         0.006170     -0.012266     -0.001605
O	      6.36585      8.61988      8.27381        -0.007703     -0.008204     -0.003324
O	      6.31059      6.61983     10.67929         0.010680      0.001665     -0.004669
O	      8.41881      8.86746     10.73420        -0.005469      0.005229     -0.009901
