# total energy = -238.86360397 eV
 
CRYSTAL
PRIMVEC
0.022101 6.311604 6.617665 
6.384018 0.038975 6.600915 
4.279452 4.219231 0.005053 
PRIMCOORD
36 1
Li	      0.07116      6.21569      6.49979        -0.001152     -0.013054      0.008462
Li	      2.20728      0.01122      2.22293        -0.008411      0.005391     -0.003704
Li	      4.32546      6.24017      2.47359         0.011799      0.004770      0.000445
Li	      6.26290      6.35555      4.36598         0.001124      0.011303      0.009565
Li	      4.15430      4.37698      4.27012         0.013029      0.009891      0.004682
Li	      0.09379      4.20842      4.50406         0.004201     -0.002078     -0.003733
Li	      2.28547      6.20289      4.51293         0.009928      0.005082      0.004153
Li	      4.25308      6.36587      6.34352         0.007235     -0.002350     -0.000057
Li	      6.47601      6.29414      8.92759        -0.005461      0.002429     -0.011956
Sc	      2.18469      8.27471      6.63133         0.002223     -0.002488      0.000318
Sc	      4.27363      2.15253      2.16491        -0.024582      0.007709      0.005568
Sc	      6.42081      8.37742     10.95968        -0.004619      0.006892      0.012420
Sc	      4.26763      2.11693      6.63341         0.008250     -0.000981     -0.000861
Sc	      6.35990      4.37387      6.51086         0.008367     -0.008656      0.008533
Sc	      4.40247      4.23435      8.89080         0.007147     -0.008586      0.011080
Co	      2.10515      4.23807      2.43126         0.000985     -0.007369     -0.003768
Cu	      4.26564      0.02692      4.38339         0.000474     -0.001987     -0.012103
Ni	      2.10770      4.26113      6.55702        -0.006785      0.005213      0.018483
O	      2.16216      2.25985      2.10773        -0.017763     -0.002760     -0.009628
O	      3.98354      4.20979      2.27916        -0.005283     -0.004502     -0.005461
O	      4.31649      2.09440      4.38506        -0.012038     -0.005259     -0.003702
O	      6.48511      4.22987      4.41866        -0.005334     -0.007633     -0.010860
O	      6.39491      2.21000      6.43943        -0.001774      0.001985      0.002079
O	      8.48147      4.24355      6.45544         0.002333      0.006913     -0.000030
O	      2.10731      4.23114      4.37990        -0.007948     -0.005937      0.005530
O	      4.26854      6.32769      4.41867         0.012142      0.003644     -0.006642
O	      4.30279      4.21336      6.76937        -0.009169      0.001421      0.004964
O	      6.49373      6.39025      6.55572         0.000895      0.002698     -0.005036
O	      6.50263      4.26044      8.69923        -0.003262      0.002469     -0.003299
O	      8.54523      6.29808      8.72653         0.018940     -0.003380     -0.000458
O	      2.10781      6.30555      6.65497         0.000150     -0.006363     -0.008922
O	      4.26943      8.39410      6.72869        -0.005912      0.000439      0.000055
O	      4.28034      6.32444      9.00562         0.018271      0.005359     -0.005212
O	      6.45158      8.47502      8.86152         0.011025     -0.006030     -0.003006
O	      6.27858      6.33542     11.02381        -0.006610      0.003964      0.006213
O	      8.54086      8.46169     11.01731        -0.012413      0.001840     -0.004112
