# total energy = -229.45563276 eV
 
CRYSTAL
PRIMVEC
6.089077 -0.063586 0.072108 
1.412255 7.803970 0.068111 
1.574123 2.405932 7.329629 
PRIMCOORD
36 1
Li	      1.54729      2.51940      0.13500         0.004486     -0.010429      0.020308
Li	      5.99872      5.21660      0.13987         0.000883      0.008606     -0.002643
Li	      1.58002      0.78285      2.51784         0.000014     -0.013900      0.008163
Li	      3.00983      3.40964      2.57219         0.000151      0.007324      0.002206
Li	      1.46743      6.07605      2.53650        -0.005447     -0.008270     -0.005858
Li	      4.47453      5.93399      2.57434         0.001448     -0.002588     -0.006684
Li	      2.93174      1.47895      4.90242         0.008759     -0.000913     -0.001050
Li	      6.27176      1.44429      4.91651         0.001240     -0.006433      0.003397
Li	      2.91123      6.83920      4.84315         0.003357      0.002867      0.002916
Sc	      3.02895     10.17421      7.35834         0.000514      0.016811     -0.001853
Sc	      4.48143      7.71556      0.03680        -0.000356      0.010602     -0.002111
Sc	      4.59622      2.64876      0.11843        -0.003098      0.007549     -0.004685
Sc	      2.85105      5.10485      0.07427         0.005545     -0.004776     -0.004917
Sc	      4.55747      0.75981      2.63905        -0.005230     -0.001994      0.008160
Co	      6.20526      3.42229      2.53690         0.002723     -0.020656      0.013908
Cu	      6.06002      6.79335      4.95243        -0.006932      0.006314     -0.004321
Cu	      4.48821      4.18427      4.87010        -0.010046     -0.018770     -0.004024
Ni	      1.53418      4.21238      4.85855         0.007352      0.012928      0.010100
O	      3.13118      1.60080      1.22600        -0.003713     -0.002673      0.008370
O	      6.07071      1.68545      1.30755        -0.001438     -0.013526     -0.009625
O	      1.34610      4.27331      1.30948        -0.001422      0.001147      0.000261
O	      4.46326      4.29479      1.24475         0.003611      0.006788      0.002554
O	      5.99839      6.99723      1.26881         0.000150     -0.015843     -0.003950
O	      2.94314      6.89443      1.18467        -0.004420      0.005928      0.016923
O	      1.47554      2.69362      3.70945        -0.002398      0.001574     -0.010515
O	      4.71337      2.64889      3.60791         0.009432      0.002921     -0.005019
O	      5.99892      5.03240      3.82973        -0.011960      0.014796     -0.006663
O	      2.97938      4.97336      3.85859         0.000317     -0.005990     -0.002048
O	      4.56020      7.65540      3.81145        -0.016998      0.003460      0.005401
O	      7.45710      7.63217      3.79292         0.019401     -0.007881     -0.003574
O	      6.20354      3.27937      6.14354        -0.003082      0.008388     -0.005076
O	      3.13734      3.29180      6.10633        -0.000929     -0.000555     -0.007458
O	      4.64049      5.80629      6.14705         0.008559      0.014014      0.005915
O	      7.53108      5.75085      6.01674         0.000771     -0.003111     -0.000514
O	      3.02024      8.49107      6.25606        -0.009157      0.006867     -0.010002
O	      5.99880      8.39556      6.21801         0.007915     -0.000575     -0.005991
