# total energy = -229.57819349 eV
 
CRYSTAL
PRIMVEC
6.063074 -0.076800 0.065485 
1.389398 7.848391 0.104438 
1.555362 2.451685 7.359157 
PRIMCOORD
36 1
Li	      1.55463      2.53547      0.17950         0.006976      0.006081      0.012938
Li	      5.99120      5.25140      0.20877        -0.006346     -0.000837     -0.011982
Li	      1.57263      0.63553      2.54776         0.004259     -0.006524     -0.007385
Li	      2.94316      3.43067      2.56072        -0.002440      0.006329      0.001337
Li	      1.39996      6.14941      2.54120         0.001590      0.000593      0.003312
Li	      4.45870      6.04210      2.61763        -0.000435     -0.002103     -0.005419
Li	      3.06182      1.38426      5.03504         0.000426      0.004770      0.007082
Li	      6.23047      1.42586      4.94434         0.003799      0.002720     -0.009067
Li	      2.85692      6.94797      4.87238        -0.001094      0.002900      0.008880
Sc	      1.62847      2.42385      7.30232        -0.016595     -0.003507     -0.000164
Sc	      4.46757      7.73891      0.08546         0.014464     -0.008195     -0.024604
Sc	      4.58143      2.60946      0.09958         0.000385      0.017878     -0.016414
Sc	      2.81778      5.11172      0.11565        -0.006955      0.001766     -0.008665
Sc	      5.97056      8.61327      2.74059         0.010500     -0.005867      0.000499
Co	      1.49161      4.31607      4.80996        -0.009776      0.007542     -0.010875
Cu	      6.03644      3.49865      2.52007        -0.021667      0.007882     -0.005336
Cu	      4.43453      4.25722      4.91882        -0.007330      0.008116      0.024569
Ni	      5.99553      6.85378      4.99307         0.004097     -0.011653      0.000371
O	      3.12979      1.59440      1.22216        -0.014532      0.007428      0.011179
O	      6.04646      1.63548      1.23575         0.009683      0.001197      0.004162
O	      1.36123      4.30901      1.35031         0.007326     -0.000726     -0.001150
O	      4.56207      4.26394      1.32641        -0.006845     -0.016709     -0.007215
O	      5.98219      7.02035      1.31147         0.017401     -0.013403      0.000470
O	      2.93762      6.90466      1.22117        -0.005965     -0.011351      0.012894
O	      1.30998      2.89619      3.67545         0.018744      0.000939      0.013497
O	      4.65990      2.71688      3.62187        -0.000871     -0.000057      0.009165
O	      5.86837      5.16973      3.86123         0.004791      0.013875      0.003787
O	      2.88684      5.03237      3.88231        -0.014723     -0.009022      0.002352
O	      4.50992      7.76488      3.84176         0.015956      0.000963      0.002896
O	      7.45623      7.73608      3.80588         0.000974      0.001293     -0.005529
O	      6.18868      3.30770      6.15663         0.004163      0.008178      0.005424
O	      3.14934      3.25123      6.09557         0.002945      0.014074     -0.015327
O	      4.56361      5.84764      6.25752         0.001802     -0.018745      0.008888
O	      7.47819      5.72823      6.00950        -0.022464     -0.000522     -0.002836
O	      3.00195      8.54323      6.31681        -0.003669     -0.001079      0.006360
O	      5.96053      8.43483      6.31783         0.011427     -0.004226     -0.008092
