# total energy = -98.37321715 eV
 
CRYSTAL
PRIMVEC
-0.000087 2.068885 2.068852 
18.237594 -0.001802 0.001758 
-0.000674 2.068889 -2.068857 
PRIMCOORD
16 1
Li	      0.40321      0.00502     -0.00095        -0.036067     -0.000457      0.000073
Li	      2.60916      2.06841      0.00189         0.007239      0.000026      0.000725
Li	      4.23539      2.06715     -2.06605        -0.002862      0.000418     -0.000772
Li	      6.44068      2.06413      0.00534         0.041877      0.001435     -0.001091
Ti	      9.03047      2.06776     -2.06636        -1.038530      0.000192     -0.000828
Ti	     16.05146      2.07102      0.00048         1.039608     -0.002781      0.001216
Ni	     11.50429      2.06906      0.00195        -0.031472     -0.000380     -0.001045
Ni	     13.57758      0.00112      0.00125         0.033294     -0.000856     -0.000135
O	     13.62051      2.06998      0.00122         0.080779     -0.001749     -0.000034
O	     15.68716      0.00177      0.00064         0.057314      0.000293     -0.000013
O	      9.39515      2.06792      0.00232        -0.062998      0.000528      0.002588
O	     11.46039      0.00011      0.00196        -0.079949      0.000911      0.000111
O	      4.61317      2.06748      0.00241        -0.046579      0.001335     -0.001683
O	      7.28884      2.06728     -2.06587         0.981871      0.001046      0.000402
O	     17.79318      2.07072      0.00064        -0.982493      0.000191     -0.000492
O	      2.23091      2.06822     -2.06686         0.038969     -0.000152      0.000979
