# total energy = -229.36406834 eV
 
CRYSTAL
PRIMVEC
6.085627 -0.058397 0.053124 
1.418416 7.797151 0.057246 
1.552889 2.399350 7.342466 
PRIMCOORD
36 1
Li	      1.54474      2.54639      0.17838         0.009476     -0.004023      0.012246
Li	      6.03704      5.20906      0.14802        -0.006244     -0.000748     -0.006598
Li	      1.58375      0.74924      2.51413        -0.008151     -0.013639      0.008187
Li	      2.94882      3.43850      2.54942         0.001238     -0.011878     -0.002525
Li	      1.42060      6.00187      2.47962        -0.003575     -0.001813     -0.011432
Li	      4.47222      5.92962      2.57165        -0.005000     -0.002139     -0.009422
Li	      2.98099      1.43938      4.93644        -0.002327     -0.000787      0.007656
Li	      6.23234      1.49265      4.89889         0.001345     -0.003301      0.004694
Li	      2.93771      6.80616      4.86309        -0.000380      0.004834      0.008426
Sc	      3.01898     10.16649      7.35133        -0.004420     -0.000977     -0.003895
Sc	      4.48816      7.70377      0.00760         0.004914     -0.002680     -0.005989
Sc	      4.61172      2.65614      0.08780        -0.003680      0.003957      0.013314
Sc	      2.84322      5.10215      0.09403         0.014677     -0.004493     -0.006683
Sc	      4.50633      0.79998      2.60128         0.006221      0.013914     -0.006109
Co	      6.08874      6.81425      4.91187         0.006720      0.009063      0.012488
Cu	      6.12361      3.40949      2.51347        -0.002764      0.010259      0.000987
Cu	      4.46643      4.18360      4.87789        -0.000225     -0.003318      0.006089
Ni	      1.51118      4.20654      4.85115        -0.001084     -0.002288      0.006753
O	      3.13313      1.61464      1.20395         0.000606      0.004690     -0.004514
O	      6.06232      1.68734      1.29726         0.002381      0.004703     -0.006439
O	      1.41748      4.28598      1.28459        -0.005030      0.006597      0.004958
O	      4.50672      4.28964      1.24901        -0.012025     -0.001629      0.000866
O	      6.01189      7.00354      1.24312        -0.000995     -0.003209      0.002979
O	      2.95112      6.90791      1.17657         0.002788      0.002253      0.001240
O	      1.44256      2.68295      3.69445         0.000934      0.001865     -0.000502
O	      4.66207      2.61109      3.66894        -0.001232      0.006865      0.002116
O	      5.97717      5.00355      3.79424         0.000036      0.005168     -0.010206
O	      2.96913      4.97351      3.86055         0.004062      0.004697     -0.002661
O	      4.55925      7.65676      3.78503        -0.005900     -0.004664     -0.001863
O	      7.38490      7.58436      3.81227         0.004955      0.004993     -0.009414
O	      6.17894      3.27937      6.13829         0.003729     -0.001745     -0.000095
O	      3.11731      3.29360      6.10866        -0.000127     -0.011243      0.002208
O	      4.67475      5.84464      6.11188        -0.006575     -0.009001     -0.002269
O	      7.50790      5.73863      5.99898         0.006070      0.004408     -0.007542
O	      3.01658      8.48781      6.24655        -0.002833     -0.002056      0.000554
O	      5.98237      8.37705      6.21879         0.002416     -0.002634      0.002400
