# total energy = -229.56619158 eV
 
CRYSTAL
PRIMVEC
6.143220 -0.094901 0.097949 
1.386261 7.744808 -0.017461 
1.606176 2.295455 7.305343 
PRIMCOORD
36 1
Li	      1.61184      2.48457      0.24432         0.009867      0.002291      0.019552
Li	      6.08372      5.14214      0.10849        -0.004330      0.002652     -0.001999
Li	      1.63399      0.72148      2.52844         0.001518     -0.025953      0.004882
Li	      2.95373      3.34423      2.49222         0.006325     -0.011809     -0.004182
Li	      1.33848      6.05051      2.26717        -0.011252     -0.004165      0.000458
Li	      4.51806      5.83218      2.50956        -0.002915     -0.004737      0.008697
Li	      3.00859      1.46791      4.84641         0.000043     -0.004427     -0.001033
Li	      6.35857      1.32716      4.92842         0.004280      0.004137      0.001546
Li	      2.88570      6.80209      4.75701        -0.002400     -0.002556      0.005959
Sc	      1.70254      2.29627      7.22149         0.013488      0.000282     -0.008646
Sc	      4.51754      7.59523     -0.01867        -0.006748      0.008191      0.006865
Sc	      4.64779      2.62033      0.12413         0.000498     -0.013521      0.001731
Sc	      2.82896      5.03739      0.02179        -0.008174     -0.003789     -0.002626
Sc	      4.61972      0.73089      2.65986        -0.014656      0.002536     -0.007549
Co	      4.51358      4.04301      4.89061         0.014152      0.009713     -0.019932
Cu	      6.06434      6.64201      4.86750        -0.006915     -0.017304     -0.009421
Cu	      1.52641      4.11299      4.79201        -0.002205      0.010668     -0.000229
Ni	      6.19591      3.34807      2.54053         0.012960      0.005923      0.001748
O	      3.20280      1.57036      1.26585         0.003527     -0.014975      0.005972
O	      6.10437      1.64527      1.27345         0.001032      0.003442      0.009909
O	      1.44452      4.28297      1.24057        -0.016997     -0.011627      0.010838
O	      4.47450      4.25492      1.21321         0.004541      0.002492     -0.000559
O	      6.07393      6.91947      1.19136        -0.011823     -0.004166      0.003529
O	      2.92786      6.86006      1.09101         0.006974      0.009202      0.000553
O	      1.50916      2.60443      3.70610         0.004762      0.011584     -0.002494
O	      4.65411      2.55953      3.80215        -0.003581      0.004364      0.014760
O	      5.76754      4.94937      3.79463        -0.004090      0.014018      0.003478
O	      3.12838      4.75624      3.99864         0.004112     -0.000197      0.006152
O	      4.57202      7.54009      3.71330         0.001560      0.006383     -0.005063
O	      7.48882      7.47770      3.69458         0.008372      0.005508      0.000124
O	      6.20521      3.20218      6.04140         0.003650     -0.000572     -0.006829
O	      3.31045      3.14779      6.14515        -0.005038      0.005136      0.009813
O	      4.66418      5.56189      6.09781        -0.002516     -0.012798     -0.011315
O	      7.55244      5.61120      5.90320         0.002426      0.010792     -0.014254
O	      3.05789      8.35023      6.12623        -0.007056     -0.000576     -0.009373
O	      6.09450      8.18622      6.14236         0.006611      0.013859     -0.011060
