# total energy = -229.80166663 eV
 
CRYSTAL
PRIMVEC
6.166711 -0.110404 0.126835 
1.372688 7.733966 0.005637 
1.640100 2.305250 7.325976 
PRIMCOORD
36 1
Li	      1.64196      2.43888      0.29952        -0.008727     -0.003222      0.000617
Li	      6.12081      5.11242      0.17421        -0.002319     -0.004648     -0.003811
Li	      1.58809      0.84321      2.41798        -0.003783     -0.007806      0.010874
Li	      2.98803      3.34134      2.55458         0.005057     -0.004320     -0.003816
Li	      1.37100      5.94912      2.41518        -0.010503     -0.000374     -0.001918
Li	      4.55325      5.83547      2.49802        -0.002294      0.001729     -0.004423
Li	      3.05900      1.49245      4.87917         0.011219     -0.010987      0.004571
Li	      6.38393      1.34139      4.96830         0.012818     -0.017294      0.010219
Li	      2.88781      6.76080      4.81846         0.001510     -0.001552     -0.004239
Sc	      3.11953     10.00846      7.27087         0.000274      0.000637      0.017354
Sc	      4.54052      7.57231     -0.01264         0.003041     -0.008838      0.000725
Sc	      4.67148      2.59242      0.14610         0.001043      0.003518      0.014118
Sc	      2.84009      5.02971      0.08671         0.017294     -0.009224     -0.001366
Sc	      4.64471      0.73374      2.67471         0.008413      0.005250     -0.000250
Co	      6.07149      6.61655      4.91499        -0.010169     -0.004087     -0.018139
Cu	      1.50116      4.10465      4.80563         0.003637      0.015170     -0.000777
Cu	      4.47028      4.09461      4.85638         0.017562      0.014305      0.008027
Ni	      6.18943      3.33422      2.57896        -0.009788      0.018564     -0.006763
O	      3.21337      1.54684      1.26763        -0.008790      0.001698     -0.007388
O	      6.14718      1.61128      1.33852         0.004398      0.016330     -0.002576
O	      1.42600      4.23265      1.22634         0.001494      0.000949     -0.001527
O	      4.51867      4.22335      1.25533        -0.014396     -0.011877     -0.018477
O	      6.06121      6.88216      1.24266        -0.004191      0.003021      0.019644
O	      2.97231      6.84747      1.15906         0.010115     -0.020749     -0.006963
O	      1.49505      2.58369      3.71106        -0.005568      0.001165      0.012430
O	      4.65739      2.50669      3.73355        -0.004010     -0.004831     -0.000061
O	      5.85559      5.06329      3.80384         0.007362     -0.000411     -0.002420
O	      2.92272      4.85515      3.87989         0.004692     -0.004315      0.005776
O	      4.70611      7.45592      3.88972        -0.000223      0.008944      0.013231
O	      7.41490      7.41956      3.82631        -0.000525     -0.002271      0.003137
O	      6.40279      3.12933      6.17876         0.000896     -0.001700      0.006155
O	      3.34565      3.16224      6.22203        -0.000991      0.010084     -0.017470
O	      4.79690      5.69492      6.10044        -0.015787      0.008013     -0.011381
O	      7.48345      5.66697      5.88630        -0.004960     -0.006665     -0.011398
O	      3.11383      8.32337      6.18417        -0.004653      0.000187     -0.009010
O	      6.15237      8.13315      6.15152         0.000851      0.015606      0.007300
