# total energy = -229.55524196 eV
 
CRYSTAL
PRIMVEC
6.066687 -0.048111 0.026258 
1.426694 7.820068 0.085383 
1.520350 2.439838 7.311174 
PRIMCOORD
36 1
Li	      1.56156      2.53660      0.17883        -0.005686     -0.008600      0.021952
Li	      6.02887      5.26920      0.19061         0.007472     -0.000301     -0.011378
Li	      2.96890      8.58847      2.57382         0.002866     -0.018279      0.011941
Li	      2.95822      3.43945      2.56477        -0.006575      0.002996      0.000790
Li	      1.49484      6.00510      2.62425         0.010216     -0.004390     -0.006552
Li	      4.48850      6.02812      2.49933         0.014640      0.001587     -0.017363
Li	      4.37767      9.28437      5.02329         0.005820     -0.005288      0.010407
Li	      7.60362      9.34337      4.92249         0.003716     -0.006471      0.006286
Li	      2.89274      6.85613      4.83017        -0.002102      0.002398      0.006596
Sc	      2.99331     10.22663      7.36604        -0.007667      0.008291      0.006218
Sc	      5.99732     10.18501      7.34322         0.014952      0.003732      0.003584
Sc	      4.58895      2.66885      0.07866        -0.000673     -0.004611      0.011672
Sc	      2.81452      5.10157      0.12424        -0.011440      0.001622     -0.000835
Sc	      5.97096      8.63428      2.69586        -0.001525      0.000387     -0.010403
Co	      6.07120      3.44771      2.45914        -0.001591     -0.001546     -0.008220
Cu	      6.01686      6.86888      4.93021         0.002748      0.009754     -0.002936
Cu	      7.53300      4.19478      4.83100        -0.005628      0.003506      0.005445
Ni	      4.44146      4.21630      4.83068        -0.006787     -0.005905     -0.005657
O	      3.12244      1.62559      1.17465         0.004580     -0.000054      0.000124
O	      6.06068      1.74340      1.29502        -0.004417     -0.004713     -0.003767
O	      1.37159      4.26103      1.28253        -0.001507      0.001128     -0.000692
O	      4.57375      4.28034      1.29864         0.002801      0.003269      0.004252
O	      5.98537      7.03414      1.24752        -0.006157     -0.001597     -0.004555
O	      2.97615      6.91730      1.21333         0.001580      0.001190      0.001790
O	      1.35286      2.76684      3.60781        -0.010336      0.008492      0.000329
O	      4.67843      2.62645      3.56767        -0.004119     -0.000280     -0.002452
O	      5.98781      4.98953      3.68769        -0.003299     -0.007989      0.000511
O	      2.87102      5.01623      3.80851        -0.008283     -0.007363      0.011653
O	      4.54744      7.68630      3.80200         0.000038     -0.004200      0.009140
O	      7.43235      7.68257      3.78251         0.010415      0.008713     -0.001295
O	      6.14159      3.33988      6.08665         0.006399      0.004765     -0.008930
O	      3.05169      3.30549      6.09855         0.000726     -0.011504     -0.009010
O	      4.61770      5.91134      6.13752         0.000847      0.007738     -0.000446
O	      7.45398      5.78492      5.90972        -0.001064      0.003834     -0.004777
O	      2.99160      8.54776      6.26561        -0.000775      0.009003     -0.005608
O	      5.95462      8.44280      6.20999        -0.000187      0.010685     -0.007817
