# total energy = -229.71006977 eV
 
CRYSTAL
PRIMVEC
6.114275 -0.122316 0.142131 
1.344205 7.805848 0.038563 
1.641591 2.351242 7.343995 
PRIMCOORD
36 1
Li	      1.57368      2.51350      0.15302         0.013859     -0.003239      0.023558
Li	      6.00622      5.20061      0.22319        -0.006033     -0.003053     -0.005077
Li	      1.65105      0.60160      2.62631         0.003816     -0.006925     -0.005405
Li	      2.94480      3.32145      2.53479        -0.003134      0.004932      0.007780
Li	      1.35723      6.09525      2.46615        -0.000374     -0.002447      0.005206
Li	      4.47782      5.94257      2.58988        -0.004261      0.002098      0.000577
Li	      3.21657      1.27578      5.11115        -0.006149      0.013449     -0.000922
Li	      6.37671      1.30131      5.03222         0.003192     -0.012553      0.004497
Li	      2.86909      6.83566      4.80761         0.005877     -0.010435      0.001490
Sc	      1.76516      2.34802      7.31164        -0.005244      0.009568      0.011549
Sc	      4.47982      7.67689      0.08776         0.011706     -0.001616      0.004145
Sc	      4.60553      2.58949      0.11686         0.005739     -0.000612      0.003834
Sc	      2.80082      5.07924      0.09645        -0.011723      0.002596     -0.002331
Sc	      5.97909      8.50664      2.74517        -0.003972     -0.004330     -0.010260
Co	      6.05980      3.40167      2.55359         0.001267     -0.003622     -0.002059
Cu	      1.47236      4.20391      4.79128         0.001129      0.002945     -0.004901
Cu	      4.44153      4.16390      4.88871         0.004282     -0.000468     -0.012067
Ni	      6.06753      6.71680      4.97331        -0.004361     -0.011736     -0.009099
O	      3.17929      1.57609      1.28223         0.001091     -0.002034     -0.000318
O	      6.09495      1.72796      1.36115        -0.002492      0.000673      0.002529
O	      1.29718      4.29145      1.32467         0.010432      0.002428     -0.010195
O	      4.58649      4.20630      1.34719        -0.001982     -0.006636     -0.002427
O	      6.01918      6.96521      1.30806         0.009737      0.000489     -0.000741
O	      2.91746      6.86559      1.20337        -0.008269     -0.011059     -0.003260
O	      1.24623      2.81002      3.54517        -0.004313      0.014050     -0.001881
O	      4.69348      2.64932      3.61367        -0.012313      0.002720      0.014431
O	      5.81964      4.94691      3.69024        -0.004715      0.008590      0.000647
O	      2.91275      4.89845      3.85242        -0.002487      0.002288      0.003656
O	      4.53025      7.65118      3.82010         0.006823      0.010823      0.002723
O	      7.48924      7.61658      3.79932         0.001537      0.000927     -0.003835
O	      6.37259      3.15425      6.20842         0.004352      0.005072     -0.009741
O	      3.32804      3.12957      6.17639        -0.004913     -0.006818      0.000179
O	      4.66519      5.70113      6.24057        -0.002834      0.003136      0.004563
O	      7.57854      5.61809      6.01504        -0.000326      0.002318     -0.006096
O	      3.07960      8.42828      6.28199         0.004253      0.001543      0.000461
O	      6.04755      8.29036      6.32555         0.000801     -0.003063     -0.001209
