# total energy = -229.94553631 eV
 
CRYSTAL
PRIMVEC
6.058929 -0.073732 0.056362 
1.392920 7.871568 0.144680 
1.546014 2.498103 7.376867 
PRIMCOORD
36 1
Li	      1.51128      2.49996      0.24655         0.008777     -0.010765     -0.018697
Li	      5.99794      5.27600      0.26018         0.000842      0.000781      0.011693
Li	      1.57087      0.70599      2.41680         0.010954      0.018393      0.005217
Li	      2.95577      3.52770      2.63853         0.009625     -0.000385      0.001253
Li	      1.46227      6.08472      2.70034         0.001994     -0.010735     -0.000825
Li	      4.45516      6.08025      2.64812        -0.006603      0.004789      0.007177
Li	      2.98851      1.45686      5.01311        -0.008624     -0.014665      0.007531
Li	      6.16562      1.53228      4.90616        -0.007368     -0.005837     -0.010421
Li	      2.88817      6.97482      4.90696        -0.021731     -0.008337      0.003033
Sc	      2.98111     10.30763      7.45214         0.009370      0.009467      0.001280
Sc	      4.44413      7.76347      0.07899        -0.003387      0.001971     -0.005362
Sc	      4.61395      2.60800      0.12397        -0.011175      0.003854      0.003649
Sc	      2.80432      5.12635      0.16795        -0.011041     -0.003860      0.007524
Sc	      4.51284      0.78220      2.60549         0.004088     -0.000072     -0.000014
Co	      1.53166      4.35277      4.87170        -0.003457      0.017348     -0.009135
Cu	      5.98545      6.91212      5.05820         0.005391      0.005010      0.001115
Cu	      6.03857      3.53043      2.54555         0.001166     -0.010265      0.006040
Ni	      4.46455      4.28938      4.91039        -0.002963     -0.011284      0.005698
O	      3.10557      1.60764      1.16634        -0.013534      0.002355     -0.006447
O	      6.04323      1.56154      1.25009         0.010099      0.002740      0.004104
O	      1.36226      4.28703      1.35250         0.001867      0.000877     -0.014349
O	      4.57982      4.26114      1.35321         0.013344      0.007982     -0.001246
O	      5.93092      7.04205      1.32927         0.003116     -0.000396     -0.001201
O	      2.93616      6.91801      1.25053        -0.002094      0.003866     -0.015285
O	      1.31017      2.94758      3.70996         0.017836      0.004607      0.011054
O	      4.69090      2.69014      3.59407         0.009640      0.000759     -0.006063
O	      5.94304      5.35509      3.92180        -0.009766     -0.003840      0.005196
O	      2.89472      5.10410      3.88052         0.007144      0.011118      0.002109
O	      4.39267      7.89349      3.82216        -0.013430     -0.000515      0.003177
O	      7.32349      7.71899      3.95396         0.000022      0.009231      0.003923
O	      6.14699      3.36780      6.16065        -0.001134     -0.001303      0.001489
O	      3.11244      3.26561      6.12070        -0.001392     -0.001646     -0.004465
O	      4.70397      6.00504      6.22001         0.010987     -0.000552      0.019807
O	      7.60037      5.69287      6.10217        -0.008337     -0.015502     -0.020294
O	      2.98505      8.57472      6.37397        -0.001630     -0.002461     -0.008231
O	      5.95427      8.46597      6.30636         0.001408     -0.002728      0.009965
