# total energy = -229.55451612 eV
 
CRYSTAL
PRIMVEC
6.149990 -0.097287 0.090223 
1.385631 7.763713 -0.030490 
1.596452 2.290682 7.357082 
PRIMCOORD
36 1
Li	      1.49839      2.49921      0.20017         0.008559      0.000198      0.001295
Li	      6.09337      5.15080      0.15291        -0.000116      0.003795      0.004054
Li	      1.61940      0.71716      2.42485         0.013460      0.019011     -0.000471
Li	      3.00885      3.40820      2.51139         0.004769      0.001930     -0.005789
Li	      1.34655      5.96953      2.42426        -0.015981     -0.001889     -0.012528
Li	      4.42237      5.94806      2.47676        -0.020419      0.001209     -0.008720
Li	      2.96220      1.38478      4.90741        -0.012341     -0.002742     -0.002878
Li	      6.28936      1.32455      4.97777        -0.000043      0.007696     -0.014033
Li	      2.92909      6.82670      4.71362        -0.006446      0.009246      0.001589
Sc	      3.02372     10.00637      7.29268        -0.005599     -0.015618      0.002367
Sc	      4.49789      7.64486     -0.08410        -0.001013     -0.014738      0.015094
Sc	      4.66914      2.58707      0.12698        -0.000174      0.003394      0.022034
Sc	      2.83059      5.04560      0.03780         0.004457     -0.002357      0.013382
Sc	      4.50864      0.71743      2.67942        -0.017123     -0.007679      0.013844
Co	      1.63394      4.10433      4.87477         0.007304     -0.007506     -0.015829
Cu	      6.07949      6.66132      4.93614        -0.015243     -0.006852      0.009963
Cu	      4.54486      4.06754      4.88010         0.004867     -0.013071     -0.000082
Ni	      6.14821      3.37664      2.49498        -0.003687      0.014381     -0.004530
O	      3.16083      1.59382      1.16222         0.004338     -0.002400      0.003299
O	      6.10452      1.60100      1.34246         0.008845      0.009828     -0.015018
O	      1.44591      4.26518      1.24574         0.002983      0.005267     -0.001799
O	      4.53392      4.25726      1.21573        -0.002404     -0.009905     -0.005024
O	      6.00322      6.91272      1.17801         0.010400      0.005756      0.005756
O	      2.94251      6.86338      1.07028        -0.013749      0.011125     -0.010604
O	      1.49119      2.72256      3.79654         0.004073      0.009358      0.017281
O	      4.68658      2.54948      3.67457         0.002842     -0.012268      0.003615
O	      6.09587      4.99234      3.93270         0.000121      0.002075      0.001626
O	      3.04699      4.89401      3.87586        -0.007896     -0.001563     -0.004456
O	      4.34577      7.68891      3.56558         0.014664     -0.002435     -0.010181
O	      7.35302      7.44760      3.80501        -0.000521     -0.002144      0.004395
O	      6.28598      3.10509      6.18598         0.010899      0.002987     -0.001638
O	      3.20832      3.13028      6.10719         0.016180     -0.004033      0.013266
O	      4.84329      5.71389      6.07061         0.010667      0.009307     -0.005102
O	      7.81931      5.35011      6.12807        -0.006990     -0.002144     -0.006304
O	      3.03787      8.31642      6.18813        -0.009646     -0.004694      0.007051
O	      6.06265      8.18459      6.11109         0.009964     -0.002527     -0.014927
