# total energy = -229.88486523 eV
 
CRYSTAL
PRIMVEC
6.088870 -0.085762 0.068653 
1.385308 7.869920 0.092453 
1.565649 2.443898 7.390731 
PRIMCOORD
36 1
Li	      1.62051      2.47464      0.28792         0.000111      0.007002      0.003120
Li	      6.03214      5.21761      0.21182        -0.000530      0.007418     -0.002418
Li	      1.58607      0.66616      2.48607         0.000861     -0.009899     -0.001737
Li	      2.96899      3.50828      2.66200         0.003146      0.009083      0.008185
Li	      1.50025      6.09968      2.62861         0.007851     -0.004138      0.008495
Li	      4.48710      6.05902      2.54571         0.000098      0.003839     -0.011917
Li	      3.08148      1.39267      5.08091        -0.014035     -0.001461     -0.003521
Li	      6.28382      1.53675      4.86398        -0.005433     -0.001044     -0.003783
Li	      2.83217      6.93052      4.91236        -0.003921      0.007945      0.006055
Sc	      3.04555     10.24961      7.39972        -0.003775      0.001734      0.001032
Sc	      4.49127      7.71440      0.07405         0.000445     -0.001031     -0.005896
Sc	      4.59049      2.60831      0.08739         0.000474     -0.007685      0.002684
Sc	      2.76491      5.06630      0.12858        -0.007576      0.006096     -0.001038
Sc	      4.65037      0.79606      2.58714        -0.007185      0.006485      0.002607
Co	      6.00412      6.90620      4.94368        -0.004851      0.009312      0.007827
Cu	      6.05272      3.50992      2.52808         0.010303     -0.015859      0.003794
Cu	      1.44272      4.31355      4.86753         0.000568     -0.002138     -0.013275
Ni	      4.39660      4.26789      4.95663        -0.004912      0.001919      0.004774
O	      3.15148      1.53183      1.22497         0.003484     -0.009620      0.003543
O	      6.07918      1.57094      1.17250        -0.005326     -0.009920      0.009745
O	      1.32766      4.30974      1.35353         0.004655      0.000832     -0.004071
O	      4.59968      4.24212      1.35949         0.010913     -0.000556      0.010620
O	      6.00360      7.00583      1.29139        -0.004935     -0.001207     -0.006103
O	      2.97818      6.88481      1.21889         0.007910      0.000666      0.004446
O	      1.30238      2.90997      3.63864        -0.002454      0.010128      0.005325
O	      4.71370      2.70311      3.59395         0.006680     -0.005511      0.007020
O	      5.76921      5.46628      3.94215         0.016954      0.002597      0.007047
O	      2.83726      5.08000      3.91133         0.004233     -0.005124      0.000204
O	      4.60366      7.81098      3.90065         0.010286     -0.002757     -0.019485
O	      7.48490      7.78337      3.82353         0.001889     -0.003528     -0.012248
O	      6.22282      3.29684      6.15195        -0.006463     -0.002501      0.000150
O	      3.21966      3.11051      6.16307        -0.006940      0.005088      0.001908
O	      4.53785      5.81898      6.39445        -0.007768     -0.007381     -0.007292
O	      7.39202      5.83431      5.97106         0.012689      0.008779      0.004325
O	      3.01726      8.50433      6.33126        -0.002413      0.009339      0.002942
O	      5.99522      8.29442      6.26119        -0.015034     -0.006900     -0.013067
