# total energy = -229.55007468 eV
 
CRYSTAL
PRIMVEC
6.154921 -0.120530 0.143840 
1.355046 7.771827 0.035784 
1.655402 2.338611 7.365319 
PRIMCOORD
36 1
Li	      1.61801      2.44283      0.31458         0.009084     -0.004069      0.004237
Li	      6.07341      5.16177      0.21011        -0.013510     -0.002821     -0.002490
Li	      1.67328      0.66747      2.56471        -0.010729      0.000037      0.004015
Li	      2.94277      3.36829      2.52669         0.006465     -0.006020      0.008474
Li	      1.38340      5.96469      2.50967        -0.000552     -0.005395     -0.000442
Li	      4.58127      5.88288      2.51648        -0.007255     -0.005262      0.000338
Li	      3.21201      1.34174      5.06875         0.011260      0.012605     -0.010419
Li	      6.39696      1.32277      5.06375        -0.008055      0.011554     -0.007656
Li	      2.89785      6.80308      4.84899        -0.000971     -0.003341     -0.004342
Sc	      1.75681      2.31836      7.32202        -0.004474     -0.001487     -0.006223
Sc	      4.50170      7.64254      0.06204         0.010252     -0.010727      0.002969
Sc	      4.65301      2.59549      0.14660        -0.000289      0.000104     -0.000038
Sc	      2.84734      5.06625      0.08544        -0.000632     -0.014264     -0.008725
Sc	      5.99711      8.49293      2.73199         0.012007      0.005051      0.008775
Co	      4.41604      4.11599      4.84033        -0.005650     -0.007969      0.013052
Cu	      6.17452      3.36997      2.58717        -0.006910      0.015487      0.007007
Cu	      1.47685      4.16493      4.83692         0.001796     -0.006945     -0.008483
Ni	      6.09071      6.65484      4.96035        -0.006398      0.012551      0.004299
O	      3.19986      1.58498      1.31201         0.015421     -0.009496      0.001866
O	      6.11733      1.64889      1.35707         0.001181     -0.009305     -0.008658
O	      1.40424      4.23687      1.24485        -0.005416      0.003533      0.006521
O	      4.49306      4.24350      1.25652        -0.000735      0.002697     -0.003205
O	      6.03279      6.93529      1.30251        -0.001385      0.005212     -0.003137
O	      2.93069      6.86254      1.19992        -0.002565      0.001400     -0.004004
O	      1.40923      2.69030      3.68737         0.005978      0.010869      0.009261
O	      4.68468      2.59034      3.77732        -0.001526     -0.012515      0.007183
O	      5.88153      5.00833      3.70884         0.017178     -0.014583      0.003731
O	      2.92707      4.88892      3.91519         0.000115      0.005663     -0.010353
O	      4.60905      7.56338      3.85555         0.006488      0.001914      0.007292
O	      7.44262      7.51589      3.87081        -0.005875      0.002214     -0.013203
O	      6.39494      3.16010      6.24463        -0.000329     -0.000038     -0.001685
O	      3.34188      3.20479      6.26356        -0.004140      0.002214     -0.002293
O	      4.79097      5.68810      6.12017         0.001524      0.009912     -0.003236
O	      7.53834      5.66569      5.97286        -0.008158      0.009402      0.003782
O	      3.10222      8.39465      6.26024         0.000461     -0.000070     -0.002147
O	      6.08487      8.29073      6.28078        -0.003656      0.001892      0.007938
