# total energy = -232.53556643 eV
 
CRYSTAL
PRIMVEC
6.064210 -0.067223 0.083353 
1.403679 7.787708 0.012099 
1.607113 2.604118 7.377473 
PRIMCOORD
36 1
Li	      4.56501      9.21077      4.93448         0.000378     -0.027588      0.010209
Li	      3.05911      8.57031      2.50434         0.001050      0.000918     -0.003552
Li	      4.54383      7.75162      7.39431        -0.000984     -0.007100      0.005607
Li	      6.05655      6.93398      4.84831         0.000590      0.002754     -0.010954
Li	      3.01090      6.93125      4.88218        -0.009408      0.000370     -0.005939
Li	      1.45530      6.16067      2.66559        -0.002655      0.003050      0.000469
Li	      4.44747      2.59324      0.11757         0.002544     -0.005541      0.001610
Li	      4.42261      4.27807      4.88679         0.006531     -0.003881     -0.006638
Li	      3.03164      3.32979      2.49908         0.004562     -0.003011      0.001865
Sc	      0.08222     -0.02608      0.06586        -0.002620     -0.010142     -0.010945
Sc	      3.07319      0.05077      0.03410         0.002392      0.001928     -0.007157
Sc	      6.15362      1.64791      4.83500        -0.003070      0.003685     -0.003996
Sc	      7.56231      7.57545      7.35170         0.000710      0.004103     -0.000844
Sc	      4.36671      5.97892      2.64223         0.001617      0.001105      0.002388
Co	      1.49989      4.45679      4.88527        -0.007138      0.017070      0.012984
Co	      1.56895      2.61806      0.04361         0.012908      0.011627     -0.014199
Cu	      6.04897      3.45575      2.54884         0.002271      0.005748     -0.009268
Ni	      4.54220      0.85211      2.58754        -0.002334      0.001511     -0.000868
O	      6.13573      8.64806      6.21803         0.005201     -0.005778     -0.009282
O	      2.96620      8.72410      6.17120        -0.006074     -0.000103     -0.004100
O	      7.50859      7.83673      3.67314         0.003405      0.002546     -0.005490
O	      4.51718      7.69559      3.71397         0.000540     -0.007815      0.001827
O	      3.00560      6.88859      1.20205        -0.002880     -0.000377      0.007421
O	      5.95142      6.86003      1.24068        -0.005662      0.000433      0.001368
O	      7.56971      5.90746      6.15626        -0.000933      0.002767     -0.002515
O	      4.35519      5.95104      6.41483        -0.007987     -0.002809      0.017977
O	      2.89104      5.19016      3.80871        -0.004994      0.003093     -0.001114
O	      5.97345      5.10493      3.70482         0.010010      0.007151      0.006553
O	      4.57978      4.28258      1.33967         0.002438      0.007179      0.005312
O	      1.39213      4.18568      1.14773         0.001687     -0.002321      0.006069
O	      3.13796      3.56523      6.31654        -0.001202      0.000874      0.003918
O	      6.28167      3.41957      6.20292         0.000119     -0.003372     -0.001014
O	      4.64886      2.57115      3.70372         0.001259     -0.003519      0.004682
O	      1.46836      2.91966      3.74193        -0.002689     -0.005932     -0.009531
O	      6.26874      1.77907      1.23340        -0.005565      0.003366      0.014609
O	      3.10085      1.65286      1.28165         0.005983      0.008011      0.002537
