# total energy = -232.50934528 eV
 
CRYSTAL
PRIMVEC
6.086096 -0.099371 0.124278 
1.366098 7.781357 -0.013296 
1.646974 2.563288 7.402691 
PRIMCOORD
36 1
Li	      4.58408      9.15761      4.93803        -0.001830     -0.006866      0.007233
Li	      3.02783      8.55134      2.47704        -0.001751     -0.000730     -0.001477
Li	      4.56669      7.61604      7.41864         0.004044     -0.005238      0.002995
Li	      6.05237      6.83005      4.86546         0.002668      0.000359      0.005656
Li	      3.19197      6.79211      5.06931        -0.000123     -0.010787      0.001639
Li	      1.45018      6.15495      2.65357         0.001045      0.004746      0.000632
Li	      4.34155      2.63104      0.05796        -0.001901     -0.003292     -0.005204
Li	      4.47244      4.43155      5.05991        -0.000273      0.003364      0.002213
Li	      3.07879      3.26800      2.55248        -0.000318     -0.001299      0.003676
Sc	      0.09801     -0.01650      0.07259        -0.007421      0.004244     -0.000665
Sc	      3.09887      0.02649      0.06301         0.010465     -0.005069     -0.002978
Sc	      6.24431      1.60040      4.90414        -0.011213      0.005419      0.000180
Sc	      7.55816      7.48064      7.33528        -0.007329      0.008664     -0.010764
Sc	      4.35335      5.93855      2.63196        -0.001515     -0.004004      0.006770
Co	      1.46468      4.46564      4.86218        -0.001481      0.003144     -0.001450
Co	      6.05903      3.42603      2.57620        -0.000487      0.002139      0.014213
Cu	      1.49535      2.57519      0.06974         0.011964      0.008269     -0.013922
Ni	      4.59858      0.78644      2.59254         0.000185      0.001331      0.001347
O	      6.15813      8.63694      6.23762        -0.004156      0.005334      0.004946
O	      2.95581      8.68107      6.14203         0.003157     -0.000760     -0.001124
O	      7.39878      7.81588      3.63068         0.001161     -0.002695     -0.007009
O	      4.52412      7.67988      3.70029         0.001654     -0.002510     -0.000784
O	      2.97713      6.86278      1.19333         0.005337      0.000469     -0.002142
O	      5.94058      6.84142      1.25804        -0.001531      0.002325     -0.003019
O	      7.45186      5.91874      6.07749         0.005247     -0.001905      0.006963
O	      4.42843      5.92839      6.40736        -0.007636     -0.015418      0.012497
O	      2.88799      5.18586      3.80778         0.004538     -0.005749     -0.002498
O	      5.97246      5.05592      3.69929        -0.003732     -0.001702     -0.004969
O	      4.57496      4.26461      1.34177        -0.003817      0.004080      0.001613
O	      1.30306      4.12899      1.12148        -0.007329     -0.003357      0.002946
O	      3.22405      3.55585      6.39426        -0.002345      0.002847     -0.009366
O	      6.34019      3.35390      6.24669         0.004664      0.005469     -0.005107
O	      4.75217      2.48650      3.65783         0.010256      0.010012     -0.009090
O	      1.49457      2.89829      3.74994        -0.002492      0.000819      0.000543
O	      6.26403      1.65700      1.34982         0.000905     -0.001862     -0.000555
O	      3.25827      1.55177      1.45458         0.001389      0.000210      0.006059
