# total energy = -232.95458850 eV
 
CRYSTAL
PRIMVEC
6.082794 0.023918 -0.057992 
1.524948 7.770014 -0.049448 
1.477563 2.588050 7.351001 
PRIMCOORD
36 1
Li	      4.52694      9.24004      4.84569         0.001399      0.001480      0.003767
Li	      1.59446      0.95175      2.48587        -0.004708      0.005573     -0.003117
Li	      4.56297      7.86886      7.08247         0.004286      0.012373     -0.000509
Li	      6.04506      6.96710      4.79728         0.005562      0.006064      0.007390
Li	      3.00483      6.80461      4.87127        -0.009102      0.005040     -0.003462
Li	      1.48967      6.03545      2.61966         0.000326      0.006572      0.004473
Li	      4.53136      2.65599     -0.01938         0.011651     -0.008886      0.008165
Li	      4.50228      4.41530      4.82528         0.000273     -0.000822     -0.003107
Li	      2.94822      3.40249      2.44476        -0.006682     -0.000305      0.003880
Sc	      0.03186      0.07358      0.10729        -0.022057      0.001349      0.008275
Sc	      3.02367      0.11076     -0.05700         0.018584      0.005100      0.005752
Sc	      6.08698      1.70119      4.76167        -0.013038     -0.005988     -0.014304
Sc	      7.57167      7.65246      7.22687        -0.003386     -0.001346     -0.006682
Sc	      4.40879      6.01148      2.51693        -0.005314     -0.005122      0.016809
Co	      6.06321      3.43965      2.37589        -0.012703     -0.019059      0.000236
Co	      3.22921      5.33426      7.20925        -0.004197      0.003363      0.003893
Cu	      4.52770      0.89070      2.45059        -0.000992     -0.003755     -0.000488
Ni	      1.50832      4.38982      4.83662         0.006632     -0.001453     -0.001186
O	      6.13092      8.67731      6.04555        -0.002628      0.006651      0.007268
O	      2.95268      8.69052      6.12497         0.007189      0.001944      0.000922
O	      7.49222      7.81729      3.53516        -0.005931      0.014643      0.005051
O	      4.63115      7.80261      3.53754        -0.007482     -0.006743     -0.004666
O	      3.10268      6.88312      1.06655         0.004541     -0.000637     -0.006762
O	      6.05643      6.94809      1.11363        -0.005506      0.001005     -0.002891
O	      7.64816      6.01068      6.08322         0.008984      0.001484      0.001056
O	      4.47793      6.07347      6.19605         0.009524      0.005122      0.002582
O	      3.01529      5.20953      3.65567         0.012690     -0.002826     -0.017713
O	      6.03894      5.01775      3.49501        -0.002111     -0.003007      0.002625
O	      4.74261      4.28390      1.26355         0.009051      0.003830     -0.001322
O	      1.32506      4.11677      1.28764         0.009358      0.002719      0.003324
O	      2.95374      3.54074      6.19424         0.000245     -0.003710     -0.006674
O	      6.07160      3.41579      6.09690        -0.005870     -0.000075     -0.003756
O	      4.69422      2.63822      3.44729         0.003555     -0.005697     -0.002806
O	      1.33175      2.70023      3.57541         0.002964     -0.001228      0.003403
O	      6.01451      1.79341      1.29208         0.005327     -0.005831     -0.007974
O	      3.02431      1.73487      1.17852        -0.010434     -0.007823     -0.001453
