# total energy = -232.48854613 eV
 
CRYSTAL
PRIMVEC
6.038445 0.005264 -0.015643 
1.490269 7.749747 -0.010364 
1.510412 2.605366 7.323579 
PRIMCOORD
36 1
Li	      4.49362      9.17411      4.87332        -0.000042     -0.015702      0.015750
Li	      3.07472      8.61306      2.47246        -0.002279      0.003555      0.005291
Li	      4.49987      7.75634      7.12010        -0.000608     -0.003979      0.002160
Li	      5.94812      6.96933      4.83446         0.023698      0.002058     -0.013615
Li	      3.08173      6.80008      4.90676        -0.000810      0.007418      0.000152
Li	      1.50597      6.11934      2.66365         0.002904     -0.000559     -0.011736
Li	      5.86959      5.29021      7.30777         0.001328     -0.009352      0.001559
Li	      4.46803      4.46562      4.92696        -0.002029     -0.001592      0.000927
Li	      3.00327      3.38888      2.41836        -0.003434      0.005390      0.008169
Sc	      0.02847      0.07325      0.09893         0.000424     -0.002586     -0.021911
Sc	      3.00778      0.11566     -0.05066         0.003243     -0.018051      0.004860
Sc	      7.54724      9.41431      4.72520         0.010000      0.017885      0.010569
Sc	      7.56562      7.63952      7.23362         0.004965      0.021781      0.006079
Sc	      4.38003      6.02385      2.54871         0.002003      0.000914     -0.001649
Co	      6.06737      3.44392      2.40655        -0.011834     -0.010846      0.004798
Co	      1.53100      2.60500      0.01530        -0.012905     -0.010439     -0.002136
Cu	      1.51800      4.40072      4.82039         0.015189     -0.018913     -0.001693
Ni	      4.49329      0.89669      2.47587         0.006477     -0.001139      0.009674
O	      6.09601      8.65568      6.07807         0.012902     -0.003840      0.006986
O	      2.96104      8.72360      6.14450        -0.016331      0.002258     -0.002325
O	      7.48853      7.80549      3.60172        -0.003328     -0.005189     -0.001845
O	      4.54834      7.73255      3.60777         0.007665     -0.011670     -0.015862
O	      3.06278      6.87678      1.13151         0.003707      0.009990     -0.000953
O	      5.97843      6.91096      1.14764        -0.004562      0.018573     -0.006165
O	      7.65003      5.92904      6.13818        -0.010876      0.001324     -0.008170
O	      4.37275      6.02120      6.26136        -0.006583     -0.014982      0.012843
O	      2.96899      5.16305      3.67187        -0.020013     -0.009600      0.004643
O	      6.06642      5.01876      3.54200         0.012822      0.018910      0.008423
O	      4.73711      4.26178      1.32113        -0.004055      0.017998     -0.021860
O	      1.37899      4.10436      1.23111         0.014635      0.019124      0.015184
O	      2.98013      3.60116      6.16598        -0.016956      0.008783     -0.013818
O	      6.09999      3.44736      6.08791        -0.006441      0.005214     -0.010858
O	      4.71573      2.67347      3.46970         0.004531     -0.013495     -0.003692
O	      1.38544      2.76991      3.57850         0.008983      0.011287      0.021510
O	      6.11827      1.84096      1.25057        -0.012785     -0.010970     -0.011259
O	      2.95392      1.75289      1.15251         0.000393     -0.009555      0.009971
