# total energy = -232.82748270 eV
 
CRYSTAL
PRIMVEC
6.084490 -0.106320 0.116698 
1.357143 7.753216 -0.027112 
1.634397 2.542557 7.395850 
PRIMCOORD
36 1
Li	      4.50870      9.28661      4.85314         0.012922     -0.021606      0.009967
Li	      1.63146      0.79640      2.44695         0.003780     -0.001368      0.004603
Li	      2.94028      5.00274      0.04351         0.002372     -0.007858     -0.010674
Li	      6.03561      6.78157      4.88984         0.000665     -0.006337      0.002251
Li	      3.12293      6.71077      5.12887         0.001604     -0.004796      0.000586
Li	      1.42262      6.10151      2.63470         0.002164      0.002576      0.011901
Li	      4.34654      2.61116      0.03139        -0.000784     -0.000299      0.003779
Li	      4.48838      4.42864      5.07492        -0.010190      0.006895     -0.000162
Li	      3.03760      3.26670      2.49574         0.009826     -0.000162      0.004453
Sc	      0.10083     -0.01729      0.07259        -0.002581      0.003146      0.004066
Sc	      3.08959     -0.00529      0.05678        -0.001292      0.006874     -0.001532
Sc	      6.22410      1.59350      4.90351         0.003967     -0.004338      0.005398
Sc	      7.56309      7.41145      7.33939         0.000523     -0.002563     -0.009887
Sc	      4.37416      5.85171      2.61571        -0.005403     -0.000622      0.002959
Co	      1.43514      4.43843      4.82170        -0.008189      0.010010     -0.003538
Co	      4.57217      0.77600      2.61511         0.008073     -0.001844     -0.004595
Cu	      1.49275      2.57820      0.04951        -0.005583      0.007312     -0.007553
Ni	      6.05724      3.36123      2.53820        -0.009190     -0.001397     -0.002267
O	      6.16062      8.57927      6.24011         0.004780      0.000360     -0.005128
O	      2.92706      8.63658      6.10518        -0.001113     -0.000512      0.004221
O	      7.35240      7.79284      3.55614         0.005644      0.004146      0.004317
O	      4.60854      7.73952      3.60987         0.000061     -0.000975      0.006479
O	      2.96903      6.85665      1.19442         0.009232      0.000409     -0.008768
O	      5.93719      6.84631      1.30553         0.001533     -0.001092     -0.000972
O	      7.44108      5.88301      6.05290        -0.002793     -0.002565     -0.001679
O	      4.42744      5.88906      6.37843        -0.002914      0.001952      0.001778
O	      2.88001      5.19685      3.80192        -0.001044     -0.001596      0.008075
O	      5.92580      5.04672      3.74738        -0.003587     -0.004129     -0.004863
O	      4.53813      4.26098      1.31414         0.002180      0.001188     -0.002270
O	      1.37340      4.14295      1.06111        -0.003299     -0.012478     -0.010958
O	      3.21464      3.51359      6.38717        -0.001531      0.009509      0.001762
O	      6.30427      3.32502      6.22314        -0.003027      0.003807      0.002163
O	      4.64136      2.31171      3.64958        -0.001253      0.006036      0.007549
O	      1.53495      2.84174      3.77842        -0.002001      0.001039     -0.006309
O	      6.24215      1.62452      1.35186        -0.003732      0.002270     -0.006841
O	      3.33747      1.51675      1.45645         0.000180      0.009007      0.001689
