# total energy = -232.40041617 eV
 
CRYSTAL
PRIMVEC
6.051856 -0.055258 0.042551 
1.415653 7.751309 -0.005623 
1.557797 2.587172 7.352850 
PRIMCOORD
36 1
Li	      4.52710      9.34103      4.84002         0.001232     -0.003152     -0.000772
Li	      3.02857      8.58161      2.43015        -0.004634     -0.003525     -0.006091
Li	      4.53584      7.65372      7.25452         0.011413     -0.002524     -0.003215
Li	      5.87021      6.82746      4.98561        -0.000384      0.001242     -0.000787
Li	      3.14943      6.74760      5.10238         0.009347     -0.003198      0.006098
Li	      1.40592      6.02983      2.60663        -0.009771     -0.004594     -0.001072
Li	      5.93040      5.23443      7.35067        -0.001810     -0.001667      0.005106
Li	      4.49750      4.49939      5.03955        -0.000101      0.002242      0.001901
Li	      2.97013      3.35370      2.43708        -0.006396      0.002911      0.002839
Sc	      0.08312     -0.00275      0.05423        -0.022162     -0.007047      0.008637
Sc	      3.04403      0.04063     -0.02580         0.019016     -0.000657      0.005576
Sc	      6.11443      1.62451      4.80389        -0.005934     -0.010822      0.010071
Sc	      7.54507      7.51362      7.31121         0.000358      0.002442     -0.002220
Sc	      4.34190      5.93891      2.59120         0.007354     -0.011557      0.005197
Co	      1.49910      4.40897      4.86172         0.008437      0.014365      0.008084
Co	      4.54001      0.83359      2.47057        -0.002011     -0.002938     -0.002053
Cu	      6.01503      3.41981      2.48018        -0.001811      0.004873      0.004920
Ni	      3.13240      5.22990      7.34769        -0.002530      0.009423     -0.003509
O	      6.13275      8.62851      6.16430         0.003017      0.006412     -0.000753
O	      2.91355      8.65111      6.11542         0.010907      0.006363     -0.000660
O	      7.32660      7.81856      3.50124        -0.002384      0.002566     -0.003896
O	      4.60842      7.80652      3.53747         0.005113      0.008289     -0.009811
O	      3.01364      6.89041      1.17321        -0.001636     -0.000968     -0.007186
O	      5.93688      6.90394      1.25395        -0.005141      0.009681     -0.011887
O	      7.60064      5.85840      6.12720         0.004186     -0.002111      0.003822
O	      4.54644      6.03156      6.21336        -0.004538     -0.003008      0.012941
O	      2.87894      5.20396      3.78351        -0.007547     -0.003883     -0.004557
O	      5.92954      5.05336      3.66939        -0.009687      0.000642     -0.002118
O	      4.56087      4.29527      1.31055         0.000147      0.000665      0.004430
O	      1.36913      4.23828      1.22357        -0.001682     -0.003549     -0.002093
O	      3.08707      3.47058      6.23440        -0.001032      0.003716     -0.004436
O	      6.21154      3.38771      6.09874         0.005206     -0.006836     -0.001603
O	      4.58706      2.39494      3.54318         0.002769      0.003164      0.002085
O	      1.45847      2.84932      3.72504         0.004807      0.000257     -0.012192
O	      5.96089      1.63936      1.37307         0.000491     -0.002695      0.001945
O	      3.16722      1.61900      1.32159        -0.002607     -0.004522     -0.002740
