# total energy = -232.70142014 eV
 
CRYSTAL
PRIMVEC
6.071123 0.049640 -0.086476 
1.555041 7.816793 -0.033093 
1.451199 2.631134 7.342716 
PRIMCOORD
36 1
Li	      4.48197      9.35245      4.73118        -0.003878     -0.014934      0.009762
Li	      1.57254      0.95626      2.46370         0.000027     -0.000499     -0.000394
Li	      4.52214      7.80946      7.21242        -0.003611     -0.007088      0.003814
Li	      6.00436      7.12393      4.67648         0.000671     -0.002003     -0.005224
Li	      3.16181      6.86047      4.95085         0.004019     -0.008117      0.001896
Li	      1.47251      6.14134      2.68012         0.005583      0.006665     -0.002255
Li	      4.46206      2.72108      0.00766        -0.001111     -0.001676     -0.006751
Li	      4.51401      4.56201      4.92781        -0.001377      0.000514     -0.001401
Li	      2.95409      3.45328      2.48417        -0.007834     -0.002850     -0.000454
Sc	      0.03463      0.04144      0.07734         0.011774     -0.012164     -0.001291
Sc	      3.02305      0.07048     -0.10346        -0.015080      0.001817      0.000064
Sc	      6.06667      1.80109      4.69229         0.002770      0.003035      0.008220
Sc	      7.56958      7.77168      7.21234         0.014020     -0.000078     -0.010535
Sc	      4.38908      6.03595      2.51660        -0.002927      0.012158      0.000137
Co	      4.40599      0.91058      2.44373        -0.017630      0.007342      0.010710
Co	      1.58448      2.64656     -0.01816         0.001929      0.022117     -0.005376
Cu	      6.08783      3.51169      2.33770        -0.000873     -0.004406      0.003566
Ni	      1.52116      4.43045      4.82577        -0.008839      0.002772     -0.016429
O	      6.14407      8.74953      6.00511         0.006123      0.001769      0.005608
O	      2.94952      8.77530      6.12034        -0.008938      0.003916      0.002756
O	      7.37244      8.00410      3.38267         0.002318      0.000350      0.000283
O	      4.54457      7.81279      3.55124        -0.000785     -0.005537      0.006057
O	      3.12640      6.95877      1.06265         0.011373     -0.006587      0.000976
O	      6.08298      7.05214      1.12186        -0.006684     -0.005939      0.002506
O	      7.73356      6.05261      6.12476         0.009836      0.001810     -0.002723
O	      4.33971      6.02255      6.31491         0.005201      0.001393     -0.004428
O	      2.99241      5.27318      3.66647         0.010827     -0.001940     -0.006169
O	      6.03531      5.17353      3.55874        -0.005442     -0.002035     -0.012241
O	      4.69449      4.41527      1.15954         0.001971      0.011838      0.016036
O	      1.50831      4.15267      1.14846         0.002603     -0.000840     -0.005360
O	      2.95349      3.66309      6.21681         0.004493     -0.013415     -0.006456
O	      6.02666      3.46668      6.04419        -0.005321     -0.002524      0.000813
O	      4.57999      2.54206      3.38778         0.001797     -0.002387     -0.002973
O	      1.44352      2.68503      3.66510        -0.000976      0.002529      0.003774
O	      6.28127      1.90778      1.04479        -0.003051      0.004854      0.008920
O	      3.08793      1.70974      1.17587        -0.002978      0.010139      0.004563
