# total energy = -232.08295500 eV
 
CRYSTAL
PRIMVEC
6.039623 -0.080648 0.081373 
1.380299 7.792399 0.030220 
1.591584 2.621713 7.401227 
PRIMCOORD
36 1
Li	      4.50185      9.37437      4.91017         0.013334     -0.000438      0.010624
Li	      2.99001      8.60379      2.47627         0.003100     -0.003997     -0.005597
Li	      4.52749      7.68943      7.36071        -0.002803     -0.002796      0.015554
Li	      5.89954      6.87263      4.96410        -0.005987     -0.006020      0.009778
Li	      3.14524      6.82100      5.14561         0.008911     -0.000505     -0.010580
Li	      1.41506      6.15687      2.68637         0.006431     -0.008619     -0.001703
Li	      5.93553      5.25239      7.45460        -0.007441     -0.003740      0.002620
Li	      4.48292      4.50364      5.09300        -0.006495      0.004141     -0.000270
Li	      3.00495      3.34286      2.48205        -0.000655     -0.004863      0.000231
Sc	      0.07910     -0.02403      0.06911        -0.001996      0.014004     -0.010956
Sc	      3.04374      0.02642     -0.00209         0.011969     -0.005236      0.010438
Sc	      7.54352      9.41060      4.90874         0.005484      0.009924     -0.019827
Sc	      7.49316      7.56933      7.38628        -0.004619     -0.017915      0.015138
Sc	      4.32176      5.97844      2.63415        -0.015041      0.005131     -0.004993
Co	      1.51231      4.44756      4.92406        -0.001634     -0.010309     -0.008106
Co	      6.04745      3.50206      2.56948         0.009280     -0.004404     -0.011998
Cu	      4.55056      0.86944      2.51977        -0.002105      0.002027      0.001634
Ni	      1.49824      2.60101      0.02685        -0.000156      0.007665     -0.001658
O	      6.10383      8.66939      6.24355         0.002999      0.007377     -0.005117
O	      2.91809      8.70408      6.18533        -0.004275     -0.001532      0.000053
O	      7.34782      7.84923      3.63336         0.001690     -0.000567      0.010093
O	      4.52835      7.80996      3.65065        -0.000694     -0.004397      0.000552
O	      2.96933      6.89616      1.21733        -0.001257     -0.013604      0.010197
O	      5.89035      6.83151      1.24784         0.002245     -0.002909      0.000764
O	      7.57162      5.88190      6.21780        -0.001718      0.014894      0.000699
O	      4.48358      6.02778      6.33628         0.004882      0.002418     -0.010635
O	      2.86206      5.25532      3.83581        -0.003842      0.002551      0.002593
O	      5.92105      5.09932      3.73745        -0.005940      0.003956      0.007460
O	      4.53072      4.30713      1.37141        -0.004920      0.008736     -0.005999
O	      1.30171      4.18903      1.23397        -0.001175     -0.005995     -0.007396
O	      3.11831      3.51046      6.29444        -0.007480      0.005555     -0.004233
O	      6.23993      3.39449      6.19054        -0.001008      0.009707      0.002854
O	      4.67285      2.54076      3.64001         0.007614      0.002262     -0.002726
O	      1.50232      2.89653      3.78817         0.000659     -0.000719      0.011459
O	      6.07019      1.63659      1.36099         0.001720     -0.002980     -0.006843
O	      3.12312      1.62590      1.31455         0.000922      0.001199      0.005899
