# total energy = -232.36135546 eV
 
CRYSTAL
PRIMVEC
6.040956 0.006628 -0.026391 
1.492449 7.780492 -0.010192 
1.497595 2.619385 7.330613 
PRIMCOORD
36 1
Li	      4.49508      9.30014      4.87861         0.000545     -0.017353      0.009113
Li	      1.58062      0.90718      2.45992         0.000871      0.002673     -0.001276
Li	      4.50715      7.78447      7.08842        -0.000487     -0.005069      0.002934
Li	      5.87809      6.92959      4.95891         0.001178     -0.008856      0.000854
Li	      3.13331      6.77925      5.00873         0.000461     -0.007145      0.004100
Li	      1.47441      6.08351      2.60090        -0.007856     -0.008536     -0.005654
Li	      5.91213      5.29861      7.27849         0.001062      0.006070      0.008220
Li	      4.49566      4.50286      4.94963         0.006233      0.006207      0.004909
Li	      3.00034      3.43238      2.43387         0.000900      0.005333      0.012330
Sc	      0.01845      0.05137      0.09788         0.015219      0.004560     -0.000740
Sc	      3.00233      0.07349     -0.06169        -0.008914      0.002132     -0.004331
Sc	      7.53654      9.48051      4.73742        -0.003943     -0.025922      0.011562
Sc	      7.53852      7.65020      7.23211         0.014058      0.014553     -0.016565
Sc	      4.38930      6.04901      2.53963         0.000407      0.009925      0.005845
Co	      6.04712      3.47347      2.41809        -0.007217      0.008914     -0.002259
Co	      4.47831      0.92461      2.45596        -0.010138      0.005198     -0.006365
Cu	      1.51701      4.43408      4.83142         0.004089     -0.000422      0.006909
Ni	      3.08917      5.27386      7.32005        -0.009658     -0.012638     -0.018271
O	      6.09120      8.71294      6.06847         0.012930      0.011005      0.003475
O	      2.93515      8.72258      6.12099        -0.020685      0.007114     -0.005264
O	      7.34399      7.91525      3.45805         0.008454      0.001137      0.011460
O	      4.58709      7.82536      3.55212        -0.005758     -0.023380     -0.012123
O	      3.05920      6.90512      1.13278         0.007790     -0.001143      0.009653
O	      5.97174      6.88013      1.11562        -0.005048     -0.000297      0.003264
O	      7.56863      6.01279      6.03872        -0.000032      0.000725     -0.006610
O	      4.50751      6.08919      6.18810         0.001914     -0.012790     -0.000750
O	      2.96740      5.23799      3.68838         0.004442      0.005005     -0.000536
O	      6.04692      5.03875      3.54604        -0.010689      0.003872      0.004457
O	      4.70976      4.28174      1.33019        -0.015678      0.005410     -0.001667
O	      1.33791      4.18954      1.30745         0.013007      0.008145      0.007136
O	      2.95839      3.51571      6.14579         0.006835      0.015439     -0.000269
O	      6.08361      3.43666      6.08545        -0.016719      0.002773     -0.014436
O	      4.70433      2.69352      3.48713         0.001562     -0.000564     -0.006798
O	      1.37579      2.79109      3.59979        -0.000015     -0.014539      0.000162
O	      6.03122      1.81194      1.29930         0.014564      0.013950     -0.003321
O	      3.12835      1.65719      1.28019         0.006315     -0.001485      0.000849
