# total energy = -232.84562974 eV
 
CRYSTAL
PRIMVEC
6.075133 -0.035824 0.021130 
1.446361 7.816343 -0.020110 
1.546274 2.603823 7.400423 
PRIMCOORD
36 1
Li	      4.55842      9.33335      4.86035         0.005490     -0.019332      0.019463
Li	      1.60056      0.91882      2.48781         0.011823      0.004452      0.007075
Li	      4.47625      7.74082      7.28639        -0.004832      0.009149      0.014012
Li	      6.08462      6.90353      4.82752         0.007989     -0.006657     -0.002493
Li	      3.02529      6.72278      5.10491        -0.000734      0.007577     -0.008957
Li	      1.48906      6.16444      2.67774         0.002672     -0.013292     -0.007437
Li	      5.96638      5.27299      7.36387         0.008703     -0.002074      0.000032
Li	      4.47172      4.54519      5.02213        -0.005992     -0.000899     -0.011562
Li	      3.02325      3.36304      2.48008        -0.005172      0.002537      0.011940
Sc	      0.05630      0.01491      0.07892        -0.008225      0.002311     -0.006145
Sc	      3.05408      0.06254     -0.00323        -0.005856      0.013441      0.005527
Sc	      6.13434      1.68422      4.85261         0.010233      0.022720      0.001142
Sc	      7.53463      7.61009      7.27906         0.003168     -0.021987      0.002835
Sc	      4.40576      5.97854      2.57681        -0.006836      0.002143     -0.015360
Co	      6.09284      3.43400      2.46908         0.005889      0.016756      0.007319
Co	      4.52727      0.82751      2.55092        -0.005233     -0.013756     -0.016498
Cu	      1.49991      2.61961      0.02675        -0.005167     -0.016751      0.017423
Ni	      1.45724      4.47777      4.86019         0.008282      0.006895      0.006641
O	      6.11455      8.74342      6.17879         0.002177     -0.004977      0.029287
O	      2.94143      8.74322      6.15183         0.003012      0.000749      0.002541
O	      7.39428      7.92358      3.50841         0.002015      0.015233     -0.006099
O	      4.67569      7.85805      3.57007         0.010754      0.006444     -0.015553
O	      3.04052      6.94553      1.15306        -0.010026     -0.010544      0.009635
O	      6.00104      6.98921      1.25182         0.002492      0.007102     -0.014891
O	      7.39848      6.10363      6.05773         0.004411      0.013341      0.003938
O	      4.37449      5.99263      6.38406        -0.013638     -0.007138     -0.007221
O	      2.98130      5.28701      3.73320        -0.006227     -0.000006     -0.012522
O	      5.98003      5.12132      3.65264         0.008249      0.004024      0.006007
O	      4.69799      4.29391      1.34269        -0.005698      0.003340      0.000019
O	      1.42807      4.14961      1.11366         0.000516      0.013863     -0.003960
O	      3.05710      3.63658      6.32720        -0.013140     -0.009846      0.002185
O	      6.15255      3.37499      6.19360         0.004371     -0.000441     -0.010218
O	      4.61445      2.41325      3.55237         0.003567     -0.013530      0.007612
O	      1.39453      2.74481      3.62326        -0.003861     -0.000446     -0.013270
O	      6.19995      1.75829      1.23664        -0.008090     -0.015297     -0.006765
O	      3.31007      1.58602      1.40156         0.002915      0.004897      0.004318
