# total energy = -238.92963009 eV
 
CRYSTAL
PRIMVEC
6.087195 0.008869 -0.024395 
1.567991 7.884074 0.076740 
1.533726 2.679536 7.428532 
PRIMCOORD
36 1
Li	      7.58380      2.73260      7.34161        -0.001808      0.010158      0.001337
Li	      4.61316      9.57628      5.03335         0.006357     -0.003373      0.003972
Li	      4.58895      7.90720      7.32631         0.009609      0.000776      0.001392
Li	      6.03688      7.03538      5.15620        -0.008959      0.014809     -0.014890
Li	      3.02036      7.01221      5.17035         0.003464     -0.008316     -0.007143
Li	      4.66751      2.67769      0.06512        -0.003017     -0.006752      0.000574
Li	      3.16499      5.51969      7.31022         0.003205     -0.004142     -0.009754
Li	      4.57508      4.64869      5.09147        -0.011133     -0.008895     -0.010055
Li	      6.09864      3.48464      2.41816         0.005746      0.007694      0.016462
Sc	      4.45096      2.78707      7.25006        -0.006545     -0.008381      0.010438
Sc	      7.71664      9.60716      5.03310        -0.011309     -0.005694      0.000826
Sc	      1.47423      0.95607      2.43269        -0.013984      0.012808     -0.010925
Sc	      1.57286      6.12054      2.55965        -0.005033      0.007904      0.000397
Sc	      4.66954      6.09886      2.61188         0.012805      0.006240      0.012804
Sc	      3.10852      3.47669      2.39738         0.004874      0.002918      0.001186
Co	      7.60784      4.53485      5.17504         0.014895     -0.010195     -0.000095
Cu	      4.56507      0.86898      2.43747         0.013761      0.006015     -0.009985
Ni	      7.66934      7.82667      7.43447         0.005669      0.000117      0.000041
O	      6.23515      8.88183      6.30537         0.005736     -0.008213      0.009784
O	      3.02094      8.72173      6.29065         0.004878     -0.018680      0.002767
O	      7.89092      7.85853      3.80646         0.010647     -0.007824     -0.010702
O	      4.76102      7.98501      3.59230        -0.003690      0.012532      0.007211
O	      3.16130      7.07079      1.38375        -0.007039     -0.004491     -0.007925
O	      6.10554      7.11280      1.38805        -0.006359      0.014072      0.001808
O	      7.61445      6.03253      6.19254        -0.006010      0.006426      0.002267
O	      4.55616      6.29277      6.18890        -0.001642      0.023265     -0.014943
O	      3.09435      5.18741      3.67840        -0.001502      0.007359      0.012436
O	      6.19921      5.32668      3.76273         0.000828     -0.017001     -0.005045
O	      4.62779      4.44020      1.34059         0.007947     -0.000576     -0.001021
O	      1.55074      4.45894      1.34186        -0.006702     -0.013441     -0.009868
O	      2.98161      3.53587      6.12557         0.001839     -0.000044     -0.007880
O	      6.06756      3.51180      6.07841        -0.006275      0.011069      0.004932
O	      4.58363      2.40891      3.54754        -0.011954      0.001606     -0.005642
O	      1.54977      2.63178      3.69422         0.013877      0.008877      0.012841
O	      5.89645      1.62385      1.34960        -0.006506     -0.012412      0.014580
O	      2.86250      1.83135      1.11243        -0.006671     -0.016219      0.007817
