# total energy = -238.93489805 eV
 
CRYSTAL
PRIMVEC
6.026231 0.004894 -0.048456 
1.548030 7.979328 0.151081 
1.486416 2.784169 7.451232 
PRIMCOORD
36 1
Li	      7.46925      2.85856      7.34507         0.004168     -0.004945     -0.005976
Li	      3.05707      1.93195      4.91194         0.000145     -0.003700      0.002869
Li	      4.49280      7.94807      7.28795         0.001651     -0.002302      0.001439
Li	      5.98890      7.10937      5.17431         0.014998      0.003556      0.011228
Li	      2.98238      7.16407      5.32073        -0.001447     -0.014638      0.002812
Li	      6.05922      5.45395      7.33027        -0.005437      0.006809     -0.004000
Li	      3.05504      5.51758      7.28989         0.010286      0.004548      0.002764
Li	      4.52413      4.70867      5.16394         0.000014      0.007719      0.000756
Li	      6.04706      3.59618      2.44105        -0.007874      0.008344     -0.004807
Sc	      4.41030      2.87169      7.32667         0.000119     -0.006962     -0.010793
Sc	      6.01892      1.87031      4.96131        -0.002963     -0.029034      0.003002
Sc	      1.47478      0.98957      2.48312        -0.007785      0.001837      0.006333
Sc	      1.53061      6.22901      2.56837         0.013147      0.017238     -0.011142
Sc	      4.60994      6.23311      2.69836         0.005632     -0.000873      0.003988
Sc	      3.10578      3.56562      2.41384         0.007455     -0.012124     -0.011082
Co	      4.54999      0.97061      2.44124        -0.004612     -0.000939      0.004105
Cu	      7.51780      7.96832      7.48606         0.006462      0.014490      0.011244
Ni	      7.53122      4.53772      5.06510         0.001598      0.001166     -0.006402
O	      6.12555      9.02243      6.41326         0.000303      0.007126     -0.006734
O	      2.81942      8.82620      6.44965        -0.001545     -0.002050      0.016528
O	      7.61518      8.07843      3.77884        -0.007806      0.005733      0.009362
O	      4.69020      8.11261      3.67083         0.010857     -0.003135      0.009977
O	      3.09882      7.21248      1.49067        -0.000590     -0.004570      0.012574
O	      6.01840      7.19626      1.43401         0.006687     -0.001697      0.003527
O	      7.52909      6.24151      6.24947        -0.005872     -0.010064     -0.005762
O	      4.51921      6.31903      6.23061        -0.006833      0.000663     -0.008693
O	      3.03970      5.27821      3.66898        -0.006262      0.019830     -0.000360
O	      6.13225      5.42606      3.77081         0.012410      0.003161     -0.009281
O	      4.61827      4.55830      1.32421         0.004204      0.020286     -0.012559
O	      1.50656      4.52599      1.35418        -0.003036      0.013921     -0.001252
O	      2.94758      3.60167      6.21632        -0.014404      0.004340     -0.009781
O	      5.96851      3.57230      6.13442         0.004715     -0.023017      0.008080
O	      4.50841      2.59579      3.62298        -0.007186      0.001481      0.017250
O	      1.54203      2.68142      3.72771        -0.012281     -0.006710     -0.005007
O	      5.85030      1.67134      1.35017        -0.003423     -0.000334      0.000013
O	      2.96580      1.80368      1.24932        -0.005496     -0.015155     -0.014219
