# total energy = -239.10499226 eV
 
CRYSTAL
PRIMVEC
6.010914 0.004913 -0.046600 
1.544594 8.030560 0.278793 
1.486121 2.923466 7.468209 
PRIMCOORD
36 1
Li	      7.46908      3.07911      7.40863         0.009301      0.014105      0.003517
Li	      3.02549      1.99739      4.89630         0.006943     -0.010035      0.009004
Li	      4.49828      8.10899      7.38448        -0.001026     -0.001941      0.004772
Li	      5.98893      7.22281      5.25643         0.009623      0.003089      0.009117
Li	      3.00518      7.33296      5.41555        -0.015093      0.004948     -0.005985
Li	      4.60327      2.70012     -0.02835         0.010929      0.000088      0.018041
Li	      3.01752      5.71557      7.40375        -0.004847     -0.006757     -0.001962
Li	      4.54113      4.82379      5.21940        -0.014909     -0.003413      0.000142
Li	      6.01798      3.59312      2.41599         0.000936      0.000200     -0.003535
Sc	      4.42758      3.03085      7.35914        -0.003882     -0.000413      0.004382
Sc	      6.00792      1.94393      4.93998        -0.000988      0.006526     -0.001962
Sc	      1.42171      1.05397      2.45423         0.004738     -0.017554     -0.005012
Sc	      1.51090      6.33817      2.67258        -0.000669      0.010242      0.006448
Sc	      4.57874      6.35264      2.83592        -0.004779      0.000415     -0.000345
Sc	      3.10960      3.60619      2.46886         0.003599     -0.005438     -0.007160
Co	      7.52975      4.71863      5.18692         0.001236      0.005022      0.013418
Cu	      6.01964      5.32562      0.20389         0.004897     -0.012406     -0.005043
Ni	      4.50123      0.99955      2.46613        -0.000375      0.004697      0.005937
O	      6.17946      9.15973      6.61694        -0.016078     -0.001371     -0.007821
O	      2.80359      8.96779      6.58827         0.007053     -0.002148     -0.014409
O	      7.59338      8.16544      3.92734         0.004968     -0.011696      0.011739
O	      4.59748      8.12997      3.92677        -0.008974      0.007005      0.008206
O	      3.08865      7.30321      1.60655         0.007062      0.003934     -0.008156
O	      5.98675      7.33690      1.59919         0.001325      0.006347     -0.009149
O	      7.53746      6.18578      6.16339         0.005425      0.008221     -0.012260
O	      4.52327      6.46051      6.31135        -0.017876     -0.007044     -0.001902
O	      3.00151      5.30738      3.72839         0.010578      0.003338     -0.014665
O	      6.10963      5.47455      3.84419         0.003648     -0.002599     -0.007968
O	      4.60587      4.65319      1.38510        -0.005329     -0.005395      0.011360
O	      1.43942      4.63400      1.37325         0.007086      0.005566      0.013508
O	      2.95809      3.65819      6.17963        -0.007053      0.006359      0.014308
O	      5.99443      3.66703      6.12043         0.001714      0.001472     -0.000506
O	      4.48469      2.65151      3.64246        -0.001109     -0.005541      0.009726
O	      1.53934      2.73084      3.72127         0.012327      0.013221      0.001485
O	      5.92999      1.80174      1.29053         0.006782     -0.001083     -0.025888
O	      2.96024      1.86405      1.23088        -0.017182     -0.009962     -0.011381
