# total energy = -239.08652663 eV
 
CRYSTAL
PRIMVEC
6.059641 0.012654 -0.057971 
1.565907 7.988041 0.165918 
1.486404 2.805375 7.419637 
PRIMCOORD
36 1
Li	      7.50846      2.94128      7.30535         0.002422     -0.004963      0.003529
Li	      4.58153      9.75504      5.11705         0.002569      0.023185      0.006364
Li	      4.53406      8.02651      7.28230         0.002635     -0.019348     -0.006774
Li	      5.99971      7.13550      5.13816        -0.003227     -0.007298      0.004998
Li	      3.07208      7.21344      5.30544         0.013185     -0.007003      0.013110
Li	      6.08912      5.45003      7.31311        -0.008466     -0.010401     -0.021624
Li	      3.09534      5.53390      7.19433         0.009727     -0.007681     -0.015960
Li	      4.55500      4.76258      5.16819         0.002408     -0.013047     -0.000295
Li	      6.06350      3.56684      2.36513        -0.006315      0.002078      0.003186
Sc	      4.41504      2.87937      7.27472         0.006575      0.012432     -0.011387
Sc	      6.06549      1.89579      4.95692        -0.016366      0.009200     -0.002680
Sc	      1.45100      1.01287      2.45983         0.000009      0.015477      0.000459
Sc	      1.54036      6.22904      2.55070        -0.003163     -0.001474      0.006728
Sc	      4.63408      6.22641      2.68780         0.002527     -0.003374      0.004867
Sc	      3.11594      3.58621      2.40440         0.007021      0.002447     -0.012646
Co	      7.58705      7.86591      7.31849        -0.002138     -0.003287     -0.001327
Cu	      4.52811      0.93977      2.44915        -0.006923      0.025483      0.000602
Ni	      1.51679      4.49226      5.03861         0.001070     -0.000308      0.002580
O	      6.17560      9.07978      6.40754        -0.004741     -0.002784      0.000999
O	      2.91027      8.92256      6.38265         0.007888     -0.002215     -0.009308
O	      7.62988      8.10714      3.76887         0.002159      0.000506      0.013045
O	      4.67272      8.08496      3.76259         0.002930      0.013143      0.008115
O	      3.12335      7.23209      1.50447        -0.001538      0.000617      0.001200
O	      6.05247      7.25436      1.46366        -0.008601     -0.009478     -0.004814
O	      7.56545      6.39182      6.30763         0.002582     -0.006625      0.001894
O	      4.55569      6.38044      6.20806        -0.005798     -0.012793      0.006601
O	      3.04910      5.29418      3.68470        -0.002298      0.015321      0.000272
O	      6.17639      5.46075      3.76770         0.001738      0.010148     -0.009251
O	      4.60867      4.58356      1.36403         0.007518     -0.000117     -0.002731
O	      1.52213      4.55278      1.35079        -0.001409     -0.005437      0.011123
O	      2.96549      3.70357      6.22115        -0.005515     -0.006154      0.004097
O	      5.98903      3.62095      6.09240         0.006163     -0.013272     -0.003432
O	      4.52235      2.54078      3.57593        -0.009905      0.002786      0.013258
O	      1.53654      2.70026      3.70552         0.012099      0.001566     -0.001080
O	      5.90370      1.71685      1.31521        -0.004536      0.004652     -0.012083
O	      3.00124      1.80342      1.23998        -0.002288     -0.001981      0.008365
