# total energy = -238.77474261 eV
 
CRYSTAL
PRIMVEC
5.995995 0.003954 -0.047206 
1.539801 8.074012 0.319521 
1.480699 2.974609 7.458500 
PRIMCOORD
36 1
Li	      7.42789      3.17743      7.40893        -0.007499     -0.004852      0.005386
Li	      4.61607      9.95844      5.17845        -0.004876      0.003923      0.002774
Li	      4.47598      8.22214      7.44144         0.003335     -0.008025     -0.005391
Li	      5.97866      7.31727      5.24618        -0.004633      0.000926     -0.005224
Li	      2.98485      7.44770      5.42329         0.001420     -0.000246     -0.003427
Li	      6.04612      5.63485      7.43781         0.002820     -0.008112      0.008452
Li	      2.93426      5.64543      7.37357        -0.009629     -0.001788      0.013251
Li	      4.49053      4.90960      5.25401        -0.004513      0.004006     -0.009091
Li	      6.00765      3.53995      2.33726         0.001928     -0.003944      0.004073
Sc	      4.39626      3.05777      7.32441         0.008384     -0.015199      0.018203
Sc	      5.98661      2.02932      4.90699        -0.005608      0.008056     -0.000184
Sc	      1.43704      1.02727      2.44685         0.008668     -0.000634      0.000643
Sc	      1.53225      6.35841      2.69736        -0.009256      0.005270     -0.021062
Sc	      4.59528      6.36199      2.84759         0.005002      0.025849      0.003056
Sc	      3.07635      3.61916      2.47971         0.001059     -0.006563     -0.014858
Co	      7.48268      8.17764      7.55354        -0.000314     -0.010410     -0.009006
Cu	      1.50833      4.64291      5.12768        -0.000470     -0.006025     -0.006486
Ni	      4.50598      0.98912      2.44081         0.001800      0.005843     -0.003568
O	      6.09109      9.33571      6.58096         0.007558      0.002401      0.009867
O	      2.78452      9.07478      6.62895         0.001241     -0.004171     -0.017319
O	      7.56903      8.21885      3.95957         0.002842      0.007079     -0.007680
O	      4.57997      8.14435      3.95239         0.011837     -0.009884      0.005995
O	      3.10240      7.32117      1.63465        -0.005181      0.005340      0.005901
O	      5.98228      7.29416      1.57156        -0.015863     -0.013039      0.003143
O	      7.45468      6.74178      6.54670         0.005452      0.020524      0.009947
O	      4.47056      6.54959      6.33948         0.005726     -0.005102      0.000182
O	      3.01820      5.34645      3.78376         0.007792      0.000967      0.003436
O	      6.13399      5.59063      3.96970        -0.001752     -0.002853      0.007282
O	      4.61517      4.68962      1.40813        -0.000736      0.004449      0.009674
O	      1.48993      4.68208      1.47046         0.002714     -0.003505      0.009983
O	      2.91455      3.85813      6.23881        -0.009823      0.003103     -0.014301
O	      5.97651      3.76012      6.12033         0.000098     -0.003727     -0.010143
O	      4.49513      2.67451      3.62037        -0.000371     -0.003347      0.002608
O	      1.56269      2.67648      3.68190         0.004099     -0.001259      0.000533
O	      5.94828      1.78687      1.25259        -0.000475      0.008548      0.008468
O	      2.98967      1.85852      1.22857        -0.002779      0.006399     -0.005118
