# total energy = -227.18954553 eV
 
CRYSTAL
PRIMVEC
5.990513 0.017725 -0.027277 
1.418113 7.704300 -0.003807 
1.609138 2.545783 7.278682 
PRIMCOORD
36 1
Li	      8.97563     10.15533      7.19004        -0.004648     -0.005362     -0.015149
Li	      4.72292      2.61956      7.09514         0.003058     -0.000589      0.002876
Li	      6.07619      1.74257      5.02754         0.000985      0.014745     -0.012248
Li	      2.94342      5.28184      0.05910        -0.000349      0.003093     -0.004648
Li	      6.03069      6.81524      4.93706        -0.008349     -0.007527     -0.009844
Li	      4.46386      5.93157      2.36127        -0.004358      0.011137     -0.000614
Li	      4.39234      2.57672     -0.12856         0.002441     -0.010204      0.002696
Li	      3.14488      5.12828      7.16035         0.018231     -0.001423      0.003865
Li	      5.94076      3.53627      2.36153         0.002878     -0.002470      0.015223
Sc	      1.55051      0.88071      2.34862        -0.000049     -0.004907      0.024164
Sc	      3.09231      6.78463      4.95340         0.004233      0.011153     -0.014843
Mn	      1.41912      5.94794      2.38517         0.005013      0.007449      0.015483
V	      4.57496      0.88789      2.34932        -0.009339     -0.001294      0.015613
Cr	      4.55544      9.40973      4.92429         0.005906      0.000061     -0.018289
Fe	      1.45925      4.19228      4.92732         0.015502     -0.004852     -0.006553
Co	      5.70605      5.07590     -0.00379        -0.005298      0.005311      0.004370
Cu	      4.63770      4.23497      4.85449         0.005474      0.002674     -0.013638
Ni	      3.01516      3.47655      2.34614        -0.013497     -0.003504      0.005722
O	      6.03558      8.57863      6.07049         0.000427     -0.012112      0.007747
O	      3.05749      8.50271      6.02836         0.005121      0.008660     -0.001442
O	      7.41745      7.63822      3.48411        -0.011368      0.004982     -0.013677
O	      4.53574      7.82504      3.59891        -0.009128     -0.006091      0.005098
O	      2.78440      6.82853      1.33343        -0.001613     -0.016121      0.003298
O	      5.98127      6.86990      1.34896        -0.008051     -0.001840     -0.001262
O	      7.59100      6.00371      6.04719         0.009971      0.007651      0.004423
O	      4.54161      5.86683      5.93139         0.005357      0.003894      0.006264
O	      2.80826      5.19283      3.50616         0.008232     -0.006208      0.010362
O	      6.10372      5.10544      3.61136         0.004369      0.006404     -0.001330
O	      4.51427      4.34443      1.12732        -0.014553     -0.007453      0.006417
O	      1.41260      4.41992      1.26047         0.002961     -0.010836     -0.016706
O	      3.10791      3.43212      5.92778        -0.007747      0.002428      0.008377
O	      6.21304      3.41447      6.06116         0.001013     -0.004622      0.010727
O	      4.45692      2.52398      3.61470        -0.000560      0.006236      0.007224
O	      1.67839      2.53192      3.70897        -0.000463      0.005087     -0.007596
O	      5.87011      1.68868      1.38900        -0.004727      0.006811     -0.011900
O	      3.09544      1.66207      1.27601         0.002924     -0.000363     -0.010210
