# total energy = -227.22678167 eV
 
CRYSTAL
PRIMVEC
5.960804 -0.012017 0.037604 
1.373083 7.730049 0.107658 
1.668200 2.638910 7.324442 
PRIMCOORD
36 1
Li	      5.93990     -0.05549      0.00213        -0.008368      0.001757      0.002379
Li	      4.61970      2.60406      7.25820        -0.003134     -0.001496     -0.000812
Li	      7.42764      9.51686      5.19511         0.001335      0.006033      0.003681
Li	      2.95026      5.11935      0.07577         0.001371      0.004896     -0.007414
Li	      6.04505      6.97082      5.11520        -0.006785     -0.001157      0.007591
Li	      4.38990      5.96108      2.35517         0.007713     -0.013718     -0.007562
Li	      4.37737      2.61164      0.02648        -0.003313      0.001577     -0.002291
Li	      3.13051      5.35674      7.32660         0.006516      0.004565     -0.010177
Li	      5.95010      3.54608      2.38690        -0.000760     -0.007127     -0.002843
Sc	      1.55665      0.88563      2.47098        -0.020727      0.003154     -0.003171
Sc	      4.61489      4.39247      4.95205        -0.003410      0.014140     -0.004529
Mn	      1.46017      5.98406      2.46748         0.016964     -0.007579      0.017119
V	      4.57293      0.86992      2.41747         0.022183     -0.000131      0.004552
Cr	      4.48367      9.44256      5.10608        -0.011759     -0.018478      0.015903
Fe	      1.55520      4.30665      4.97677        -0.002882     -0.002482     -0.014001
Co	      5.77616      5.14136      0.02008         0.009004      0.007894      0.002354
Cu	      3.12458      6.91267      5.09734        -0.012983      0.003674     -0.004698
Ni	      3.04303      3.46970      2.37990        -0.001707     -0.012703     -0.005068
O	      5.97182      8.67892      6.22552        -0.002455      0.007984     -0.002121
O	      2.90995      8.62178      6.24962         0.004896      0.009513      0.002838
O	      7.31328      7.63519      3.63435         0.003714     -0.016252     -0.007791
O	      4.48053      7.85725      3.81054        -0.002300     -0.002735      0.012802
O	      2.80333      6.87766      1.46231         0.003916      0.006211     -0.002006
O	      5.98554      6.87851      1.52857         0.009146      0.002280      0.001988
O	      7.65795      6.04520      6.13875        -0.004149     -0.012340     -0.011382
O	      4.57044      5.99027      6.12427        -0.014190      0.010141      0.004034
O	      2.90404      5.16158      3.60351        -0.004986     -0.007084     -0.003370
O	      6.13113      5.10871      3.70495         0.007557      0.003818      0.007313
O	      4.56116      4.34711      1.17741        -0.002798     -0.002376     -0.010102
O	      1.48267      4.44416      1.35083        -0.006585      0.008553      0.002643
O	      3.06468      3.43908      6.02329        -0.004599      0.005747      0.006324
O	      6.08648      3.55977      6.08283        -0.013964     -0.005549      0.006087
O	      4.44772      2.50623      3.67294         0.009134      0.004756     -0.000203
O	      1.66710      2.56214      3.78319         0.011574     -0.002716      0.003483
O	      5.87350      1.67423      1.45455         0.015572     -0.002225      0.008100
O	      3.08687      1.63805      1.34666         0.001260      0.009455     -0.009649
