# total energy = -227.36101755 eV
 
CRYSTAL
PRIMVEC
6.012561 0.013434 -0.065685 
1.417135 7.692829 -0.059034 
1.567760 2.496527 7.277311 
PRIMCOORD
36 1
Li	      1.53777      2.47540      7.24195        -0.001843      0.005583      0.001441
Li	      4.35709      7.64783     -0.09895        -0.004756      0.002287     -0.000379
Li	      7.37268      9.30736      4.92400        -0.004321      0.003140      0.005802
Li	      2.95004      5.21317     -0.00798         0.004496     -0.002374      0.001168
Li	      5.97754      6.82293      4.86823        -0.001736     -0.000518      0.008897
Li	      4.40681      5.97349      2.20767        -0.000761     -0.001738      0.005363
Li	      4.45547      2.60481     -0.15623        -0.004318      0.000755     -0.007743
Li	      1.50287      2.64600      0.05400         0.001727     -0.005432     -0.006028
Li	      5.99424      3.46258      2.18116         0.013824     -0.011290      0.007061
Sc	      4.65710      4.19384      4.76750        -0.013241      0.003868     -0.002709
Sc	      3.02201      6.81265      4.92388         0.015532      0.001258      0.016644
Mn	      1.45118      5.94442      2.35471         0.000971     -0.011355      0.002245
V	      4.58760      0.91915      2.26534        -0.007745     -0.007833     -0.005969
Cr	      1.53970      0.85824      2.38416         0.018335     -0.007845      0.008231
Fe	      1.52996      4.15110      4.89938        -0.007707     -0.001799     -0.011960
Co	      5.80822      5.06645     -0.07253         0.026889     -0.003746      0.000285
Cu	      4.50683      9.33275      4.81656         0.004999     -0.013796      0.009573
Ni	      3.06260      3.44782      2.28121        -0.000708      0.001391     -0.011098
O	      5.83700      8.53768      5.94606        -0.011726      0.006640     -0.010183
O	      2.64329      8.36802      6.21219        -0.001301     -0.010576     -0.000900
O	      7.51007      7.67490      3.40793        -0.004765      0.006825      0.001570
O	      4.45400      7.84313      3.59746        -0.007414      0.006994     -0.003895
O	      2.82961      6.84550      1.31145        -0.002896      0.003431     -0.007290
O	      5.83788      7.01402      1.29180        -0.000477     -0.004030     -0.002978
O	      7.57176      5.87793      5.95077         0.002138      0.010492      0.006476
O	      4.47685      5.86686      5.91668        -0.002607      0.005884     -0.002061
O	      3.04337      5.06127      3.64271         0.002193     -0.017251     -0.001305
O	      6.18903      5.05291      3.56597         0.001812     -0.000296     -0.000904
O	      4.54881      4.36105      1.01992        -0.005691     -0.005085      0.007174
O	      1.45463      4.36584      1.24302         0.005900      0.014106     -0.001950
O	      3.07038      3.23110      5.89142        -0.007132      0.010124     -0.006739
O	      6.12581      3.39553      5.89995        -0.000773     -0.010387     -0.000682
O	      4.63809      2.50013      3.36405         0.000734      0.013996     -0.001387
O	      1.77142      2.47182      3.68768         0.002963      0.009067      0.003846
O	      6.04886      1.62449      1.24769        -0.010037      0.008593     -0.007260
O	      3.02928      1.66485      1.25973        -0.000559      0.000916      0.007643
