# total energy = -98.04359780 eV
 
CRYSTAL
PRIMVEC
0.000420 2.113699 2.112314 
2.114105 -2.112778 -0.000501 
13.390616 11.267655 0.027820 
PRIMCOORD
16 1
Li	      2.42915      0.30814      1.79890         0.018278      0.020315     -0.020690
Li	      2.20757      2.20230     -0.09541        -0.000755     -0.001897      0.002489
Li	      4.10166      1.98424     -1.99181        -0.014499     -0.014915      0.017391
Li	      9.04496      4.81105     -4.80447        -0.000707     -0.000367     -0.001031
Ti	      6.71136      4.58639     -2.47279        -0.026992     -0.025406      0.025003
Ti	     13.20710      8.96766     -8.96314         0.122473      0.123112     -0.125125
Ni	      8.82272      6.70297     -6.69816         0.035822      0.031385     -0.032026
Ni	     10.95394      8.82982     -6.71292         0.053956      0.055865     -0.056719
O	     11.06324      8.93648     -8.93225         0.058700      0.063749     -0.064365
O	      8.92599      6.80578     -4.68748        -0.108760     -0.109784      0.110628
O	     11.06645      6.82851     -6.82425        -0.059908     -0.056530      0.057160
O	      6.63542      4.51268     -4.51281        -0.076347     -0.079982      0.080374
O	      4.38186      2.26362     -0.15771         0.000343      0.002776     -0.002097
O	      4.72545      4.71617     -2.60222         0.129810      0.127061     -0.127941
O	     13.05964     10.93447     -8.81835        -0.126196     -0.127825      0.127970
O	      2.14718      0.02722     -0.03374        -0.005218     -0.007556      0.008978
