# total energy = -227.07343717 eV
 
CRYSTAL
PRIMVEC
5.930533 -0.012200 0.019286 
1.365506 7.797623 0.113818 
1.638144 2.670399 7.306815 
PRIMCOORD
36 1
Li	      5.89599      0.00649      0.04500        -0.001918     -0.002668     -0.000800
Li	      2.96559     -0.00676      0.01060        -0.008216     -0.016484     -0.004288
Li	      6.07748      1.79884      4.99034        -0.000400      0.000626     -0.010449
Li	      2.95118      5.18371      0.17069        -0.006438      0.000677      0.006843
Li	      5.98435      6.90696      5.02330         0.013700     -0.006609      0.012534
Li	      4.33040      6.07497      2.34324        -0.000543     -0.002382     -0.000962
Li	      4.34690      2.70237     -0.07109         0.012316     -0.006058      0.003474
Li	      3.07524      5.21724      7.27465         0.005711      0.009822      0.002286
Li	      5.92257      3.54146      2.42801        -0.015531      0.001927     -0.004014
Sc	      4.54289      9.51343      5.15599         0.012938      0.011709     -0.016280
Sc	      3.04237      6.91626      4.98353         0.005787     -0.014664      0.005450
Mn	      1.40553      6.09393      2.45593         0.004804      0.002177      0.008622
V	      4.44113      0.93574      2.29650         0.001195     -0.000365      0.018346
Cr	      4.58490      4.35859      4.89871         0.006226     -0.005703     -0.000274
Fe	      1.51238      4.29833      4.96397        -0.007193      0.008828      0.000418
Co	      7.40543      7.78237      7.35050         0.014589     -0.003134      0.017753
Cu	      1.49071      0.91138      2.43300        -0.002363      0.000683     -0.004649
Ni	      3.00506      3.54077      2.42523         0.000724      0.009194      0.011329
O	      6.05045      8.68267      6.31021        -0.016907      0.005954     -0.007122
O	      2.92990      8.60903      6.18742         0.010587      0.009968      0.000431
O	      7.36969      7.74517      3.62133        -0.004772      0.005683      0.008424
O	      4.61664      7.90522      3.82617         0.005685     -0.000664     -0.002387
O	      2.75171      7.01556      1.43173        -0.000441      0.000991     -0.013396
O	      5.75785      7.20938      1.47500         0.001062     -0.017704     -0.004036
O	      7.53427      6.01781      6.11214        -0.003400     -0.001556     -0.002294
O	      4.49381      5.97459      6.02425        -0.009490      0.018501     -0.013279
O	      3.06802      5.15553      3.73314         0.001082     -0.009234      0.010635
O	      6.09220      5.14996      3.75152         0.000589      0.004370      0.006385
O	      4.47165      4.41692      1.20560        -0.001375     -0.001445     -0.002334
O	      1.36756      4.55088      1.27916         0.001801     -0.003882     -0.007740
O	      3.09603      3.53065      6.04071         0.006235      0.021412      0.000453
O	      6.00521      3.54741      6.03059         0.005424      0.000521      0.004147
O	      4.50534      2.58118      3.65100        -0.005333     -0.002955     -0.002028
O	      1.67363      2.61922      3.71801        -0.008819      0.002853     -0.011718
O	      5.71377      1.72575      1.38169        -0.016376     -0.007931     -0.000602
O	      3.00306      1.73223      1.41668        -0.000942     -0.012459     -0.008875
