# total energy = -227.05672119 eV
 
CRYSTAL
PRIMVEC
5.923497 0.025509 -0.050630 
1.412616 7.768406 0.096902 
1.567149 2.667701 7.297294 
PRIMCOORD
36 1
Li	      5.83781      0.10613      0.00712        -0.000638     -0.000734      0.006346
Li	      4.65739      2.75041      7.20171        -0.002578     -0.010075      0.007090
Li	      5.98760      1.83560      4.98066        -0.001642     -0.000517     -0.002383
Li	      2.96689      5.27016      0.19877         0.000920      0.002834      0.003633
Li	      5.95487      6.88494      4.94930         0.007474     -0.000544      0.001416
Li	      4.40796      6.00995      2.38102        -0.002209      0.002358     -0.005425
Li	      4.44055      2.65752     -0.01649        -0.007018      0.002525     -0.005389
Li	      3.04580      5.24456      7.19026         0.010112     -0.002638     -0.006522
Li	      5.87535      3.56989      2.34836        -0.003887      0.004860      0.006230
Sc	      1.49104      0.93758      2.35355         0.009795     -0.002639      0.002316
Sc	      4.50578      9.48579      5.13472         0.002605     -0.011385     -0.012929
Mn	      1.41393      6.05138      2.46984         0.001061      0.006637     -0.012830
V	      4.46926      0.94112      2.34137        -0.001349     -0.001548      0.009418
Cr	      2.99675      6.89831      4.95484         0.006186     -0.004087     -0.007203
Fe	      1.45077      4.30531      4.95072        -0.001456     -0.003247      0.000723
Co	      7.36013      7.78639      7.28686         0.003492      0.000631     -0.007780
Cu	      4.54361      4.41556      4.90030        -0.002278     -0.003828     -0.003944
Ni	      3.01117      3.53999      2.36153         0.001219     -0.000291     -0.000253
O	      6.01708      8.68364      6.24563        -0.001170     -0.007006      0.002529
O	      2.88834      8.51228      6.12443         0.004664     -0.010696     -0.002343
O	      7.38191      7.70978      3.60230         0.001364     -0.002084     -0.000508
O	      4.39924      7.88393      3.74195        -0.008640     -0.000218      0.005264
O	      2.75163      6.93102      1.39237        -0.005496      0.003495      0.005728
O	      5.83278      7.13003      1.45847         0.018736     -0.002204      0.014049
O	      7.52814      6.07471      5.98914         0.005089      0.003902      0.005095
O	      4.40355      6.07091      5.94147        -0.005259     -0.005278     -0.008537
O	      2.92959      5.23356      3.66672        -0.012441      0.012611     -0.001204
O	      6.02807      5.18864      3.64602        -0.001234      0.003651      0.003927
O	      4.47345      4.40572      1.15229         0.000308     -0.000853      0.004115
O	      1.36787      4.53259      1.28439        -0.006219      0.012239      0.001410
O	      3.05204      3.54384      5.99026        -0.007306      0.005615      0.002748
O	      6.02389      3.55145      5.99711         0.000786     -0.000746     -0.000176
O	      4.46261      2.45412      3.55879        -0.003657      0.002901      0.004514
O	      1.63719      2.64437      3.68474         0.003921      0.002712     -0.002339
O	      5.83856      1.74574      1.27890        -0.003115      0.002838     -0.003801
O	      3.03918      1.77259      1.26628        -0.000140      0.000809     -0.002985
