# total energy = -227.35822797 eV
 
CRYSTAL
PRIMVEC
5.951743 0.057842 -0.072336 
1.460745 7.744492 -0.013050 
1.560803 2.568026 7.273243 
PRIMCOORD
36 1
Li	      7.38476      7.74722     -0.08546        -0.000647      0.005624      0.001169
Li	      4.59940      2.65237      7.20072         0.002619      0.001074     -0.003791
Li	      5.98639      1.78969      4.94670         0.000214      0.001258      0.002249
Li	      2.99855      5.28138      0.07513        -0.001454      0.005545      0.002434
Li	      5.98407      6.83154      4.88612         0.001556     -0.006025      0.004360
Li	      4.52279      6.02346      2.33734         0.001251     -0.001624      0.003318
Li	      4.38595      2.66803     -0.18721         0.003894     -0.004116     -0.001354
Li	      3.08050      5.07865      7.15462         0.007723     -0.004870     -0.002588
Li	      5.98369      3.55894      2.34793         0.005996     -0.002641      0.002368
Sc	      4.54993      9.48996      4.98078        -0.011249     -0.007803     -0.010721
Sc	      3.03972      6.82060      4.92650        -0.004215     -0.000724      0.012242
Mn	      1.50168      6.01009      2.35988         0.003812     -0.007097     -0.000926
V	      4.53426      0.94581      2.30582         0.009238      0.005931     -0.019710
Cr	      1.52064      0.87268      2.40298        -0.018409      0.008276     -0.003154
Fe	      1.39917      4.23155      4.88589         0.003890     -0.003253     -0.008863
Co	      5.76710      5.13454     -0.02967         0.002066      0.004209     -0.004931
Cu	      4.53891      4.28231      4.79805        -0.003660      0.009418     -0.005442
Ni	      3.00453      3.49016      2.30273        -0.001770      0.001521     -0.006354
O	      6.02378      8.63614      6.06323        -0.002265      0.002942      0.004595
O	      2.97929      8.52271      6.03931         0.004484      0.005982     -0.004360
O	      7.46390      7.75366      3.41416         0.001764     -0.000565      0.004620
O	      4.50265      7.87105      3.51859         0.007029     -0.002437      0.005949
O	      2.87596      6.93534      1.34180         0.002442     -0.000652      0.001151
O	      6.02598      6.95313      1.28159        -0.004890      0.000843      0.004153
O	      7.51506      6.06397      5.97195         0.005457     -0.002720      0.000473
O	      4.50541      5.90549      5.89121        -0.000349     -0.003119      0.001286
O	      2.91431      5.18101      3.53520        -0.000142     -0.001723      0.003658
O	      6.17615      5.26375      3.48494        -0.005976      0.003383      0.000090
O	      4.55418      4.37785      1.08168        -0.005610     -0.001125      0.010152
O	      1.49574      4.49434      1.22962         0.000878      0.005665      0.004490
O	      2.84327      3.45617      6.01912         0.002992     -0.004365     -0.001278
O	      5.96888      3.52427      5.91647        -0.002684      0.000398     -0.005223
O	      4.44574      2.56652      3.54431        -0.003713     -0.001298      0.001003
O	      1.57824      2.56651      3.59933         0.008199      0.000025     -0.002537
O	      5.86449      1.67779      1.33008        -0.007753     -0.010116      0.005591
O	      3.00674      1.66634      1.28593        -0.000717      0.004179      0.005880
