# total energy = -227.13409192 eV
 
CRYSTAL
PRIMVEC
6.023428 0.030889 -0.054272 
1.442294 7.695842 -0.042658 
1.592013 2.514006 7.274047 
PRIMCOORD
36 1
Li	      3.00658     10.17460      7.18393        -0.001950     -0.007532     -0.006543
Li	      6.05637     10.18763      7.14903         0.012744      0.009078      0.001256
Li	      7.45178      9.33664      4.94115         0.006380      0.004619     -0.003120
Li	      2.93647      5.17637     -0.04360        -0.007094      0.001090      0.004735
Li	      5.97903      6.87657      4.84981         0.004503      0.003047      0.001077
Li	      4.43221      5.95323      2.21137        -0.003290      0.002039     -0.000904
Li	      4.53539      2.55190     -0.05277        -0.006004      0.012045      0.000687
Li	      1.54250      2.76615      0.00387        -0.000391     -0.003931     -0.009631
Li	      5.99541      3.51659      2.19299         0.001323     -0.005702     -0.003583
Sc	      1.54336      0.86170      2.34011        -0.001074      0.002798     -0.002972
Sc	      4.67433      4.25444      4.80725         0.017375     -0.011598      0.000121
Mn	      1.45662      5.92104      2.36488        -0.002694     -0.000424     -0.000574
V	      4.59779      0.93782      2.30701        -0.014486     -0.020522     -0.012358
Cr	      3.01692      6.80517      4.88212         0.002480     -0.006425      0.014117
Fe	      1.55626      4.17010      4.91069        -0.010424      0.003649      0.005408
Co	      7.38468      7.58752      7.14197         0.002692      0.004377      0.001019
Cu	      4.55378      9.34376      4.88635         0.000244     -0.000570      0.001233
Ni	      3.09661      3.47555      2.30029        -0.008215     -0.007337     -0.009827
O	      5.94018      8.57228      5.99190        -0.001822      0.004169      0.001806
O	      2.71636      8.32135      6.15710         0.006268      0.001916     -0.002998
O	      7.53278      7.64433      3.48277        -0.006934      0.003807      0.002392
O	      4.47237      7.82206      3.71980        -0.001261     -0.001980      0.003868
O	      2.83306      6.79848      1.29833         0.008600      0.007115      0.002685
O	      5.86396      7.04666      1.34111         0.005563      0.012353      0.009976
O	      7.65536      5.93179      5.92546         0.006229      0.005479      0.002535
O	      4.44996      5.94328      5.90852        -0.003972      0.009573     -0.007856
O	      3.07460      5.11617      3.66988         0.002112      0.006060      0.005438
O	      6.20600      5.05677      3.58118        -0.002491     -0.001802      0.012666
O	      4.58530      4.36882      1.02066         0.002162     -0.004478      0.008114
O	      1.48242      4.33893      1.27131         0.006809     -0.001833      0.001256
O	      3.10688      3.25826      5.92638         0.004809      0.011335     -0.009485
O	      6.15517      3.43810      5.93219        -0.014428      0.005975     -0.012363
O	      4.65224      2.51287      3.40132        -0.000526     -0.008266     -0.007157
O	      1.80716      2.51797      3.74475        -0.001662     -0.001414      0.002491
O	      5.99197      1.68396      1.23324        -0.006299     -0.014468      0.007979
O	      3.10454      1.71393      1.24449         0.004724     -0.012239     -0.001485
