# total energy = -227.15833428 eV
 
CRYSTAL
PRIMVEC
5.998924 0.039904 -0.075294 
1.448277 7.705339 -0.059571 
1.563538 2.507588 7.290388 
PRIMCOORD
36 1
Li	      8.91911     10.19330      7.14127        -0.009777     -0.003758      0.006411
Li	      4.63944      2.55479      7.12580        -0.001663      0.006639      0.000790
Li	      7.38819      9.36284      4.91732        -0.001754      0.001619     -0.002764
Li	      2.96258      5.29018      0.03467         0.005523     -0.000074      0.003318
Li	      5.98024      6.81828      4.84350         0.000590     -0.003847      0.004160
Li	      4.43554      5.95978      2.23039        -0.000991     -0.003195     -0.003413
Li	      4.43733      2.57997     -0.15982         0.004724      0.003071     -0.000948
Li	      1.55650      2.69234     -0.00534         0.009241     -0.006270     -0.006085
Li	      5.94925      3.52921      2.17809         0.004688     -0.001375      0.004420
Sc	      1.52940      0.87544      2.31979         0.001291      0.007160     -0.001454
Sc	      3.06777      6.81256      4.93733        -0.002535     -0.003362      0.003161
Mn	      1.43527      5.93276      2.37296        -0.002013      0.009376      0.010283
V	      4.56893      0.95503      2.30643        -0.004000     -0.007304      0.000763
Cr	      4.61689      4.20971      4.74506        -0.002748      0.008464     -0.016078
Fe	      1.50689      4.16169      4.91234         0.001926      0.001803     -0.004317
Co	      7.33873      7.57369      7.15458        -0.005155     -0.008034      0.012104
Cu	      4.55679      9.37020      4.84764         0.004083      0.011538      0.004404
Ni	      3.07687      3.48334      2.29488         0.002075     -0.004591     -0.007667
O	      5.87284      8.56612      5.98668        -0.003655      0.002286      0.000794
O	      2.67549      8.37018      6.23208        -0.001094      0.000871      0.001571
O	      7.48759      7.67505      3.43183        -0.002223     -0.000120     -0.000628
O	      4.51245      7.86448      3.65533        -0.006300     -0.004811      0.000273
O	      2.81617      6.79875      1.31232        -0.001641     -0.007504     -0.001546
O	      5.83816      7.08197      1.31839        -0.001310      0.002184      0.009877
O	      7.58923      5.91058      5.95354         0.008617      0.004683     -0.003285
O	      4.50897      5.81854      5.89090         0.008243      0.004204      0.005857
O	      3.08909      5.06034      3.66031        -0.005175     -0.000395      0.000494
O	      6.14607      5.05910      3.59630         0.007137     -0.001691      0.012364
O	      4.55024      4.39894      1.01268         0.005685      0.001097     -0.011717
O	      1.45665      4.36058      1.27117        -0.003509     -0.011099     -0.004835
O	      3.14893      3.29763      5.86436        -0.000884      0.009595     -0.005080
O	      6.06588      3.42320      5.86950         0.008412      0.000816     -0.004221
O	      4.64835      2.55903      3.40755        -0.004456     -0.006128     -0.005633
O	      1.78823      2.50571      3.74698         0.001002     -0.000044     -0.000868
O	      5.95799      1.69393      1.20556        -0.004130     -0.001116     -0.006926
O	      3.07576      1.73178      1.22468        -0.008224     -0.000688      0.006421
