# total energy = -227.10117668 eV
 
CRYSTAL
PRIMVEC
5.948122 -0.019987 -0.004411 
1.359258 7.739763 0.071836 
1.610202 2.615746 7.297516 
PRIMCOORD
36 1
Li	      5.92249      0.12475      0.05514        -0.000840     -0.000712      0.009127
Li	      4.32500      7.71164      0.09898        -0.008297     -0.006109      0.006304
Li	      7.38980      9.43503      5.03009        -0.000075     -0.004069      0.000103
Li	      2.94801      5.01635      0.06806         0.001837     -0.009684     -0.002264
Li	      6.05748      6.85803      5.01092         0.000031     -0.004659     -0.006860
Li	      4.30969      6.04946      2.32112        -0.005669      0.003833     -0.007652
Li	      4.48151      2.59450      0.06671         0.000244     -0.000858      0.000676
Li	      3.04772      5.25104      7.30405         0.004005     -0.011124      0.001709
Li	      5.94487      3.48730      2.33686         0.000980     -0.006434     -0.005087
Sc	      4.60626      4.35362      4.89632         0.005423      0.015918     -0.003222
Sc	      4.45516      9.33747      5.11423        -0.003304     -0.008293      0.013818
Mn	      1.41807      6.04107      2.42608         0.010596      0.008606     -0.007890
V	      4.48321      0.87793      2.34046         0.015991      0.001980     -0.003540
Cr	      1.48688      0.91200      2.41760        -0.028386     -0.005527     -0.001808
Fe	      1.54264      4.25268      4.91789         0.006443      0.008157      0.009899
Co	      7.39715      7.72353      7.31343         0.007153      0.001295     -0.005493
Cu	      2.99131      6.84064      4.94550        -0.003903      0.000431     -0.000919
Ni	      3.00565      3.48081      2.36616        -0.005137      0.007142      0.002364
O	      6.00237      8.57056      6.22383         0.000071     -0.001134      0.001117
O	      2.82263      8.43979      6.13665         0.000411     -0.007286      0.005600
O	      7.34950      7.70740      3.57965         0.007887     -0.000069     -0.002668
O	      4.31638      7.82535      3.65696         0.003302      0.004097      0.010284
O	      2.74178      6.98116      1.38785        -0.000044     -0.001362      0.011356
O	      5.76278      7.10484      1.40938        -0.001122     -0.002250     -0.003447
O	      7.56689      5.95871      6.03265         0.007942      0.010470     -0.006529
O	      4.45326      6.04471      6.01541        -0.002070     -0.006846     -0.005820
O	      3.00679      5.11905      3.68675         0.004929     -0.001739     -0.002546
O	      6.11118      5.11606      3.67079        -0.005304      0.001057      0.009697
O	      4.49587      4.35235      1.16056        -0.006326     -0.001150      0.006391
O	      1.36571      4.49710      1.23493        -0.010171      0.004855      0.000082
O	      3.04993      3.41677      6.00334         0.004068     -0.000016     -0.003743
O	      6.07162      3.51235      6.03312         0.001989      0.000846     -0.009328
O	      4.46098      2.44835      3.62198        -0.002133      0.010946     -0.000666
O	      1.62939      2.56728      3.68267         0.001492     -0.002525     -0.006139
O	      5.91872      1.68991      1.37082         0.002552      0.001793      0.000803
O	      2.99357      1.73404      1.33670        -0.004565      0.000418     -0.003708
