# total energy = -224.83944569 eV
 
CRYSTAL
PRIMVEC
5.937719 -0.022713 0.025111 
1.353475 7.682109 0.032324 
1.642373 2.552465 7.271709 
PRIMCOORD
36 1
Li	      5.90881      0.03619      0.08339         0.001237      0.000657     -0.019883
Li	      4.71898      2.58073      7.23031        -0.007190      0.001505     -0.017655
Li	      6.05499      1.69991      5.03547        -0.003174     -0.004028      0.010307
Li	      2.89338      5.11495      0.09209         0.002498     -0.012495     -0.014794
Li	      5.94712      6.74070      4.99422        -0.004823      0.009027      0.000150
Li	      4.41123      5.94898      2.44136        -0.008638     -0.004907     -0.016852
Li	      4.35016      2.54127     -0.07411         0.008166      0.011838      0.008891
Li	      3.02990      5.11134      7.17150         0.004553     -0.005365      0.004177
Li	      5.97488      3.42281      2.40779        -0.001725      0.005831      0.005372
Sc	      4.48540      9.31894      5.07037        -0.006337      0.009714      0.003011
Mn	      1.42310      5.96989      2.40720        -0.003896      0.011186      0.006270
V	      4.54240      0.89609      2.38750        -0.003062     -0.004389     -0.008018
Cr	      1.54436      0.86885      2.39201         0.000364      0.014399     -0.012065
Cr	      2.97156      6.78130      4.88479         0.005677     -0.008523      0.004268
Fe	      1.46065      4.19365      4.89266         0.019724      0.007043      0.007538
Co	      5.69947      5.03186      0.03190         0.005634     -0.000706      0.002679
Cu	      4.61435      4.29410      4.93229         0.004831     -0.000487     -0.001426
Ni	      3.00557      3.45521      2.34539         0.003479      0.002261     -0.000160
O	      5.97255      8.51840      6.15882         0.003276      0.010818     -0.008747
O	      2.90383      8.37888      6.09176         0.000732      0.000609      0.005329
O	      7.40787      7.60001      3.57792        -0.004437     -0.000160     -0.001063
O	      4.33850      7.73632      3.62659         0.006473     -0.002318      0.000186
O	      2.76361      6.86775      1.36492         0.006515     -0.009528      0.006643
O	      5.92376      6.87419      1.45461         0.007019     -0.024698     -0.010320
O	      7.50906      5.95747      6.03863         0.017365      0.007972     -0.005311
O	      4.39939      5.95934      5.93237        -0.000688      0.010435      0.018151
O	      2.80045      5.20695      3.55371        -0.009141     -0.011594      0.015696
O	      6.03018      5.06872      3.67858        -0.017383     -0.002294      0.009093
O	      4.49265      4.29531      1.16585         0.005756     -0.003277      0.005387
O	      1.43766      4.43948      1.30482        -0.005180     -0.003827     -0.001936
O	      3.09431      3.48027      5.92884        -0.006884      0.000336     -0.002568
O	      6.15315      3.37287      6.08230         0.007500     -0.001342      0.006183
O	      4.51566      2.37192      3.56388        -0.006956      0.007700      0.001029
O	      1.65726      2.53601      3.63142        -0.003727      0.005101     -0.009352
O	      5.97093      1.61698      1.37219        -0.007392     -0.003683      0.003007
O	      3.07893      1.62052      1.32235        -0.010165     -0.012809      0.006785
