# total energy = -217.19820242 eV
 
CRYSTAL
PRIMVEC
5.983102 0.006062 -0.012093 
1.400826 7.629249 -0.035398 
1.621806 2.484744 7.284487 
PRIMCOORD
36 1
Li	      3.00447     10.03372      7.23055        -0.007310      0.002963      0.000937
Li	      4.56552      2.48048      7.23234        -0.005921      0.003231      0.003205
Li	      7.40402      9.25785      4.95279         0.003674      0.001923     -0.003073
Li	      2.91789      5.15741      0.05484        -0.003146      0.001769      0.001512
Li	      5.99668      6.73621      4.88679         0.001074     -0.005969     -0.001802
Li	      4.36511      5.93222      2.25048        -0.000559      0.007962     -0.007051
Li	      4.37989      2.58949     -0.19152         0.001277     -0.000676     -0.001969
Li	      1.48957      2.65835      0.00671        -0.005238      0.000807      0.001334
Li	      5.95623      3.48326      2.25487         0.002633      0.000389     -0.001687
Sc	      3.10790      6.78177      4.90739        -0.005925      0.008776      0.006605
Mn	      1.43487      5.89268      2.37562         0.003217      0.003883     -0.000084
V	      4.55551      0.97186      2.25284         0.011161     -0.007235     -0.003392
Cr	      4.62550      4.15999      4.79041         0.003627     -0.005191      0.006424
Fe	      1.53312      4.11038      4.90801         0.001866     -0.001503      0.004854
Co	      7.33060      7.48740      7.18092         0.000814      0.005729     -0.005025
Cu	      1.52525      0.83697      2.41063        -0.005034      0.001119      0.003779
Cu	      4.58563      9.24888      4.91331         0.005296     -0.004075      0.007990
Ni	      3.05755      3.42220      2.35294         0.002209      0.009001     -0.000848
O	      5.90131      8.46805      6.07659        -0.002049      0.004072      0.002747
O	      2.71558      8.30278      6.23999        -0.000403     -0.008910     -0.004018
O	      7.46468      7.58910      3.47514        -0.000427      0.001984      0.003797
O	      4.65974      7.75892      3.76080         0.005325     -0.012514     -0.000963
O	      2.78687      6.79524      1.32244        -0.001055      0.001729      0.001895
O	      5.81118      6.98500      1.39739         0.002122     -0.001372      0.000338
O	      7.59396      5.83508      6.00756        -0.005111     -0.004781     -0.004954
O	      4.50711      5.76274      5.94306         0.007069     -0.010874     -0.005164
O	      3.10712      5.01185      3.68348        -0.005742     -0.004124     -0.005348
O	      6.16684      4.97153      3.65978        -0.000391     -0.000605      0.003521
O	      4.51959      4.31842      1.07555        -0.002268      0.005411     -0.002684
O	      1.48098      4.30111      1.28990         0.004490     -0.002921      0.003323
O	      3.14384      3.26801      5.89825         0.002397     -0.002196     -0.005903
O	      6.05988      3.37979      5.92530         0.002420      0.008578     -0.007601
O	      4.67007      2.50680      3.43560         0.000127      0.003414      0.000780
O	      1.83478      2.39384      3.75356        -0.000412     -0.004293      0.002547
O	      5.81059      1.63457      1.22224         0.001581     -0.000212      0.006391
O	      3.05914      1.62797      1.34755        -0.011388      0.004709     -0.000412
