# total energy = -103.49591492 eV
 
CRYSTAL
PRIMVEC
-0.000363 2.105754 2.106617 
6.161301 -0.011605 -2.096529 
-2.080737 6.341431 -4.236919 
PRIMCOORD
16 1
Li	     -2.00632      6.32789     -4.21027         0.006499      0.011783     -0.018140
Li	      2.05053      2.15019     -0.03591         0.001503     -0.006573     -0.012843
Li	      3.99054      2.18930     -2.19422        -0.018772     -0.013449      0.012879
Li	      2.13911      4.14296     -2.03838         0.005504     -0.020340      0.015921
Ti	      0.06476      4.16508      0.03777         0.295110     -0.134897      0.132490
Ti	      2.02243      6.38701     -4.26957        -0.080066      0.117764     -0.115718
Ni	      4.06018      4.17002     -4.17266        -0.058414      0.012776     -0.006185
Ni	     -0.05644      6.32990     -2.11573        -0.030951     -0.016588      0.011048
O	      4.18360      4.23813     -2.13486         0.052918     -0.106243      0.098531
O	      4.10954      1.99028      0.11786         0.009630     -0.123273      0.116966
O	      2.01306      6.43017     -2.22375         0.019487      0.053487     -0.041489
O	      1.91561      2.12025     -2.12309        -0.293931     -0.000739      0.002100
O	      4.01481      6.29357     -4.18923        -0.166499      0.077426     -0.073302
O	      0.07465      6.27514     -4.16805         0.138855      0.105727     -0.109964
O	     -0.02953      4.17799     -2.07134         0.114811     -0.104522      0.098410
O	     -0.01919      2.21860     -0.11957         0.004317      0.147662     -0.110703
