# total energy = -217.33473995 eV
 
CRYSTAL
PRIMVEC
5.969646 0.105096 -0.160254 
1.526233 7.646280 -0.091866 
1.479616 2.488725 7.249086 
PRIMCOORD
36 1
Li	      1.50250      7.59588     -0.10002        -0.000312     -0.016372     -0.001442
Li	      4.44933      2.60497      7.01774        -0.008923     -0.008246     -0.002150
Li	      5.78339      1.71017      4.92299        -0.001972     -0.001255     -0.001245
Li	      3.03445      5.30205     -0.01016        -0.007259     -0.004294     -0.008447
Li	      5.91318      6.75788      4.77111        -0.000188      0.008019      0.004310
Li	      4.57166      5.94192      2.22731        -0.014351     -0.001808      0.003105
Li	      4.47024      2.62721     -0.26782        -0.000932      0.003506      0.001017
Li	      1.56502      2.50102     -0.09757         0.003218      0.001921     -0.005462
Li	      5.99595      3.56032      2.12881        -0.002942     -0.003400     -0.002121
Sc	      3.03764      6.77098      4.88962         0.004787      0.000672      0.013800
Mn	      1.53609      5.93550      2.34148         0.008101      0.000322      0.024666
V	      4.56625      1.04100      2.25611        -0.000166      0.005439      0.018475
Cr	      1.53047      0.86683      2.35962        -0.006459     -0.019703     -0.001777
Fe	      1.37861      4.12286      4.85959         0.008649      0.023084     -0.012272
Co	      5.83503      5.08969     -0.17665         0.008229      0.004077      0.005061
Cu	      4.50888      4.21435      4.67908         0.001072     -0.001480      0.008826
Cu	      4.50629      9.32368      4.75111        -0.010828      0.000878     -0.008930
Ni	      3.06527      3.46815      2.20308         0.004560     -0.007275      0.006264
O	      5.81800      8.53493      5.87854         0.003136      0.003522     -0.003395
O	      2.64527      8.30937      6.16585         0.002135      0.003763      0.001002
O	      7.56969      7.74431      3.26645         0.027545     -0.008585     -0.001538
O	      4.52903      7.83391      3.53914        -0.010617     -0.015859     -0.012894
O	      2.91046      6.80906      1.29197         0.007433      0.004385      0.008787
O	      6.04975      6.96014      1.26055        -0.010258     -0.004491     -0.022520
O	      7.52261      5.92513      5.81493         0.011753      0.005050     -0.004529
O	      4.46975      5.79278      5.83070        -0.012899      0.019015     -0.015062
O	      2.97186      5.10923      3.49472         0.009444     -0.002782     -0.005134
O	      6.22460      5.21297      3.36218        -0.005845      0.010554     -0.006632
O	      4.58046      4.37699      0.93226        -0.003529      0.001937      0.012790
O	      1.50104      4.40160      1.22723         0.024401     -0.005211      0.000205
O	      2.82437      3.20279      5.90528         0.004405      0.015469      0.008485
O	      5.92947      3.45496      5.76549        -0.001444     -0.000147      0.001477
O	      4.60360      2.58407      3.32269        -0.009951     -0.018179      0.004610
O	      1.73510      2.50715      3.60208        -0.006948      0.001219     -0.008737
O	      5.97124      1.70925      1.15772        -0.009515      0.006672      0.000765
O	      3.01242      1.63731      1.20626        -0.003525     -0.000418      0.000643
