# total energy = -216.74179629 eV
 
CRYSTAL
PRIMVEC
5.936189 0.091773 -0.096491 
1.247719 7.709993 0.002764 
1.645416 2.517348 7.199943 
PRIMCOORD
36 1
Li	      1.25210      7.62037      0.11593        -0.009161     -0.010379     -0.005143
Li	      4.23563      7.77257      0.08558         0.004035     -0.002753     -0.006041
Li	      5.74195      8.44967      2.33345        -0.010596      0.000142     -0.004510
Li	      2.86104      8.37305      2.44475        -0.017273      0.004336      0.000801
Li	      5.76808      5.37154      0.02160        -0.011239      0.007234     -0.007167
Li	      5.84731      6.95551      4.64842        -0.004774      0.008554     -0.002374
Li	      4.39346      6.22509      2.34171        -0.013334     -0.005164     -0.005439
Li	      3.08570      4.95321      7.13283         0.003532      0.002557      0.000913
Li	      1.54671      4.22182      4.82909        -0.003471     -0.001781      0.001307
Sc	      2.91043      3.38889      2.36382        -0.008280     -0.000412      0.018802
Mn	      5.92785      3.54610      2.30853        -0.000676      0.004165     -0.010617
V	      6.14070      5.09559      7.04662         0.009246     -0.011060     -0.015536
Cr	      4.45618      4.34153      4.76320        -0.014585      0.002611     -0.002328
Fe	      2.80713      5.29918     -0.08933         0.010710      0.005007      0.005059
Co	      4.31764      9.40933      4.77678         0.005840      0.009014     -0.002673
Cu	      7.31939      9.32422      4.74182         0.012326     -0.007860     -0.007575
Ni	      2.87962      6.81340      4.77187         0.016767      0.006297     -0.001746
Ni	      7.26917      6.15422      2.30070         0.002627     -0.009585      0.010738
O	      5.82189      6.91127      1.21576        -0.009774      0.001951     -0.004622
O	      5.78340      8.66324      5.86258         0.011043     -0.001693      0.006096
O	      2.88260      8.45624      6.03152         0.002552     -0.005751     -0.002504
O	      7.31826      7.71530      3.52486        -0.001336     -0.003300      0.004181
O	      4.30271      7.87097      3.71070         0.000079      0.000054      0.001509
O	      2.79435      6.76414      1.13216         0.002809     -0.004316     -0.008067
O	      7.29107      5.96156      5.97978         0.008864     -0.007246      0.010671
O	      4.49762      5.95679      6.00069         0.005761      0.008682      0.001570
O	      2.99283      5.10786      3.60913        -0.005565      0.003339     -0.001117
O	      5.88313      5.05208      3.47874        -0.001800      0.002022      0.001140
O	      4.24607      4.25559      0.95969        -0.006944     -0.001915     -0.004052
O	      1.37812      4.28870      1.27918        -0.005243     -0.002365      0.006655
O	      3.11705      3.32101      5.80557         0.010499      0.000021      0.000620
O	      5.96093      3.63264      5.97271         0.006968      0.014350      0.017085
O	      4.61103      2.72643      3.52825         0.007636     -0.003588      0.004329
O	      1.55419      2.44087      3.66768         0.000787      0.003596     -0.004404
O	      5.78487      2.01086      1.02790        -0.000542     -0.001804      0.011178
O	      3.07727      1.85994      1.04423         0.002510     -0.002958     -0.006738
