# total energy = -225.83479159 eV
 
CRYSTAL
PRIMVEC
6.014682 -0.041938 0.066756 
1.090597 7.638333 -0.024965 
1.810151 2.408494 7.271353 
PRIMCOORD
36 1
Li	      1.19578      7.57033      0.13575        -0.008093      0.000858      0.001447
Li	      2.86853      0.05662      0.05053        -0.009795      0.010727     -0.007391
Li	      5.76585      8.25621      2.41430        -0.001331     -0.014662     -0.004529
Li	      2.84362      8.22938      2.49627        -0.002695     -0.002262      0.001855
Li	      5.79136      5.13954      0.19903         0.002805     -0.000308      0.004989
Li	      5.85599      6.73305      4.76161         0.000507     -0.002376     -0.001348
Li	      4.38787      6.04592      2.39663         0.003021      0.005934      0.002837
Li	      3.21928      4.78039      7.23429        -0.015671      0.016284     -0.013333
Li	      1.63079      4.09591      4.89397        -0.004140      0.002283      0.003371
Sc	      2.91437      3.32247      2.45608        -0.012924     -0.019021      0.000124
Mn	      7.28806      9.16883      4.86526        -0.006481     -0.004110      0.013754
Mn	      2.87619      6.67468      4.81779        -0.007263     -0.010502     -0.001156
V	      6.30707      4.90044      7.25247         0.004788     -0.011150     -0.020425
Cr	      4.56662      4.18879      4.88783        -0.002438     -0.010332      0.023387
Fe	      2.73661      5.15808     -0.02309         0.007935     -0.003116     -0.003495
Co	      3.20098      1.57931      4.89718        -0.002242     -0.009144     -0.009209
Co	      7.23704      5.93121      2.44541        -0.012326      0.013073      0.000972
Cu	      5.95401      3.35236      2.42814         0.008475     -0.006557      0.006149
O	      5.88678      6.66083      1.35826         0.018471     -0.013518      0.010705
O	      5.71458      8.47150      5.98153         0.007358      0.012753     -0.008266
O	      2.99432      8.25572      6.01360         0.002848      0.008348      0.001223
O	      7.31182      7.44341      3.62100         0.000543     -0.003455      0.004279
O	      4.23473      7.57739      3.80989         0.009309      0.008933     -0.014251
O	      2.65006      6.65659      1.25122         0.007202      0.001604      0.004540
O	      7.52500      5.76992      6.13631        -0.000149     -0.000420      0.001832
O	      4.63574      5.75691      6.13168        -0.003994     -0.003918     -0.012897
O	      3.08119      5.02815      3.74547        -0.002966      0.003406     -0.005168
O	      6.02406      4.89987      3.61162         0.012236      0.003269      0.001653
O	      4.20175      4.17142      0.96959        -0.002862      0.007162      0.007755
O	      1.38248      4.29118      1.33084         0.007400     -0.006629     -0.003145
O	      3.22126      3.19771      5.96606         0.001227      0.002913      0.002547
O	      6.06689      3.47017      6.08263        -0.006095      0.007720      0.003976
O	      4.55260      2.54960      3.67738         0.000966      0.008219     -0.002825
O	      1.77435      2.32459      3.78919         0.000633      0.002574     -0.006797
O	      5.77113      1.85950      1.09907         0.004713     -0.004931      0.014734
O	      3.08211      1.77084      1.12211         0.001027      0.010351      0.002106
