# total energy = -225.35078268 eV
 
CRYSTAL
PRIMVEC
5.995797 -0.059141 0.083957 
1.064959 7.647455 -0.003164 
1.817943 2.425115 7.249652 
PRIMCOORD
36 1
Li	      1.17803      7.59865      0.12422        -0.000104      0.000920     -0.002957
Li	      4.06813      7.60644      0.16987         0.004438      0.008108     -0.009568
Li	      5.66344      8.30509      2.40980        -0.008558      0.004549     -0.005438
Li	      2.77624      8.25598      2.51390         0.001769      0.001121     -0.000081
Li	      5.77507      5.13263      0.22242        -0.010248      0.009917     -0.009039
Li	      5.83123      6.75421      4.79440         0.001191     -0.011643     -0.006131
Li	      4.31601      6.07164      2.41393         0.000494     -0.001402     -0.002298
Li	      3.24089      4.81884      7.24397         0.002558      0.001365      0.007752
Li	      1.64986      4.12765      4.89019        -0.001752     -0.004974      0.014034
Sc	      2.87597      3.33686      2.46796         0.000705     -0.001460     -0.009748
Mn	      7.23774      9.21150      4.92489         0.001074     -0.000525     -0.003200
Mn	      2.86156      6.68274      4.82091        -0.007621     -0.009008      0.000292
V	      6.29434      4.87194      7.25241         0.007490     -0.006885     -0.008119
Cr	      4.57451      4.17975      4.88520         0.008824      0.005471      0.000255
Fe	      2.70243      5.13417      0.03259        -0.000214      0.006511      0.004984
Co	      4.26373      9.23985      4.88823         0.004800     -0.011739     -0.008705
Co	      5.89545      3.37939      2.38039         0.003477      0.008790     -0.001586
Cu	      7.09073      6.01521      2.43218         0.008001      0.004848     -0.007335
O	      5.69851      6.74429      1.26172        -0.005625      0.000123     -0.004662
O	      5.72134      8.50129      5.97253        -0.002761      0.003284      0.002146
O	      3.02294      8.26158      6.04077        -0.002539      0.005846      0.003981
O	      7.27792      7.64638      3.82897         0.002033     -0.003021     -0.000520
O	      4.19933      7.60200      3.81246         0.002413     -0.003258      0.001105
O	      2.61826      6.66064      1.25937        -0.011557     -0.009218     -0.001728
O	      7.51239      5.74679      6.12822         0.005928      0.005578      0.002243
O	      4.69484      5.75014      6.13292        -0.003956     -0.004307      0.000045
O	      3.11628      5.02015      3.77689        -0.007778     -0.002773      0.005982
O	      5.99965      4.87924      3.58449        -0.004272     -0.003040      0.012055
O	      4.24486      4.12380      1.02909        -0.007522      0.010184     -0.002953
O	      1.42199      4.07979      1.20433        -0.003220     -0.004705      0.001394
O	      3.21343      3.19975      5.95159         0.002415      0.001230      0.009331
O	      6.08877      3.40370      6.05929         0.002717     -0.001415     -0.003380
O	      4.52193      2.54351      3.67843         0.010581      0.001969      0.006480
O	      1.68647      2.34592      3.80721         0.000658     -0.001352      0.003293
O	      5.75538      1.81445      1.10623         0.005028     -0.000390      0.007863
O	      3.10598      1.74258      1.14493         0.001133      0.001302      0.004215
