# total energy = -225.88800458 eV
 
CRYSTAL
PRIMVEC
5.986748 0.052946 -0.037016 
1.207370 7.661089 -0.072671 
1.715233 2.412687 7.240437 
PRIMCOORD
36 1
Li	      1.23607      7.59021      0.04451         0.000943     -0.004035      0.003482
Li	      2.88079      0.11272     -0.01353        -0.010266      0.003720      0.003534
Li	      5.75677      8.42759      2.23668        -0.001863     -0.006447      0.001851
Li	      2.86449      8.33217      2.41156         0.001496     -0.001514     -0.002472
Li	      5.78978      5.20079      0.01342         0.001101     -0.003914      0.000000
Li	      5.84066      6.82678      4.68008         0.000331      0.001656     -0.002652
Li	      4.35878      6.11247      2.36557        -0.001633      0.004199     -0.001436
Li	      3.18768      4.81025      7.18075        -0.002094      0.007988     -0.000242
Li	      1.60776      4.14523      4.80223         0.006404     -0.002190     -0.005221
Sc	      2.97188      3.31229      2.37198        -0.008200      0.008569      0.006565
Mn	      7.34081      9.23030      4.72197         0.010124      0.009253     -0.003169
Mn	      7.24235      6.07102      2.32121        -0.006202     -0.011336      0.000500
V	      6.30350      4.96903      7.11433        -0.003862      0.003736     -0.001947
Cr	      4.54680      4.26919      4.77770        -0.000419     -0.003280      0.006733
Fe	      2.76136      5.16782     -0.11948         0.000972     -0.001657     -0.004389
Co	      4.33031      9.28002      4.75663        -0.000995     -0.007017     -0.001490
Co	      5.99503      3.44554      2.31389         0.002495     -0.008975     -0.001272
Cu	      2.89206      6.70915      4.79513         0.006084      0.007579      0.002412
O	      5.90107      6.72917      1.26146        -0.002228     -0.005581     -0.001164
O	      5.73178      8.51173      5.91470        -0.007757     -0.000422      0.009794
O	      2.91341      8.26038      6.04526         0.000965     -0.008388      0.002310
O	      7.23449      7.58900      3.41774        -0.000089      0.002202      0.011602
O	      4.25861      7.70645      3.73220        -0.005776      0.002990      0.002824
O	      2.66602      6.68663      1.20390        -0.005951     -0.001709     -0.002935
O	      7.45830      5.82029      6.03573         0.000917     -0.000743      0.004481
O	      4.68028      5.76908      6.11050         0.005593     -0.001125     -0.001396
O	      3.03982      5.08251      3.62545         0.003030     -0.001558     -0.002105
O	      6.02545      5.02205      3.48079         0.001836     -0.000002     -0.002804
O	      4.28894      4.19911      0.94303         0.003097      0.004618     -0.003437
O	      1.43581      4.29819      1.28595         0.002451      0.001526     -0.003982
O	      3.20957      3.24692      5.84329         0.006187      0.008899     -0.004279
O	      6.05143      3.50514      5.98040        -0.001347     -0.001338      0.002277
O	      4.63654      2.67951      3.53837         0.003390      0.008831      0.002523
O	      1.67466      2.39116      3.67677         0.009975      0.000185     -0.007864
O	      5.83952      1.89781      1.02334        -0.003772      0.000648      0.004261
O	      3.12190      1.75632      1.09274        -0.004935     -0.005369     -0.010896
