# total energy = -221.20054109 eV
 
CRYSTAL
PRIMVEC
5.963133 0.010920 -0.047588 
1.469800 7.654202 0.004021 
1.532155 2.526753 7.239042 
PRIMCOORD
36 1
Li	      1.64281      7.62315      0.05646         0.002251      0.013509     -0.021898
Li	      4.43270      7.63915      0.04562        -0.002691      0.004022      0.005162
Li	      4.36184      9.29089      4.87399        -0.000119     -0.005404     -0.008591
Li	      2.94483      5.18091      0.06001        -0.000112      0.009754     -0.000058
Li	      3.01848      6.82813      4.82859        -0.003862      0.005484      0.005160
Li	      1.55614      5.90534      2.39674        -0.000386      0.010073     -0.001844
Li	      7.44174      4.23563      4.69813         0.006911     -0.002565     -0.005291
Li	      2.88029      3.41550      2.30469        -0.007554     -0.001593     -0.002499
Li	      6.08951      3.41150      2.35021         0.007075     -0.003909     -0.002144
Sc	      6.03175      5.13625      0.01209        -0.010866      0.004369     -0.005445
Mn	      4.45006      5.93137      2.37673         0.004116      0.008444     -0.000612
V	      4.37731      4.09512      4.76689         0.002271     -0.011069     -0.003142
Cr	      6.04899      1.71143      4.78154         0.011726      0.006667     -0.004841
Fe	      5.97424      6.80458      4.81430        -0.009182     -0.014696      0.012903
Co	      4.45818      2.51969      0.00351        -0.001485      0.009601     -0.002851
Co	      1.49114      2.58417      0.05309        -0.001879      0.006410      0.011031
Cu	      1.51098      0.86512      2.40696        -0.007236     -0.012606     -0.002523
Ni	      4.48595      0.85737      2.34749         0.000968     -0.007890      0.002482
O	      6.03244      8.46023      5.90738         0.003908      0.010404     -0.001558
O	      2.93073      8.59359      6.04367         0.000411      0.007559     -0.000476
O	      7.38784      7.69130      3.64300         0.000143     -0.012232     -0.005337
O	      4.53116      7.53620      3.56263         0.008933     -0.003278      0.004227
O	      3.07676      6.81219      1.38322        -0.002025      0.018854      0.001170
O	      5.82651      6.74756      1.30866        -0.011152     -0.002147      0.006466
O	      7.37661      5.93240      5.99849         0.012138     -0.007033     -0.012752
O	      4.57119      5.79720      5.93328        -0.002623      0.001015     -0.011784
O	      3.19817      5.06007      3.63511         0.003184     -0.001918     -0.005991
O	      5.79504      5.15072      3.61132        -0.006829      0.001827      0.003311
O	      4.46752      4.38865      1.24954        -0.003918     -0.000662      0.011786
O	      1.49919      4.25212      1.15617         0.008356      0.005377      0.009402
O	      3.10822      3.52716      5.87319        -0.001200     -0.016680      0.006992
O	      5.85340      3.45968      5.79071        -0.007249     -0.016570      0.003217
O	      4.53532      2.62851      3.69171        -0.002131      0.011355      0.018086
O	      1.44383      2.41706      3.60368         0.002968      0.001065     -0.003714
O	      5.93067      1.66519      1.09581         0.009806     -0.005829      0.000265
O	      3.03200      1.71289      1.16060        -0.002664     -0.009707      0.001690
