# total energy = -218.14862557 eV
 
CRYSTAL
PRIMVEC
5.908116 -0.015063 0.028462 
1.423702 7.663191 0.085354 
1.598962 2.584529 7.283532 
PRIMCOORD
36 1
Li	      1.59382      7.64417      0.12587         0.003825      0.004243     -0.003782
Li	      4.38050      7.67275      0.17901         0.001041      0.002464      0.002017
Li	      4.35125      9.31562      4.97807        -0.011914     -0.001255     -0.005589
Li	      2.89864      5.17963      0.12514        -0.006168      0.020684      0.012231
Li	      2.99624      6.85302      4.92120        -0.015835      0.005334      0.002912
Li	      1.52347      5.93555      2.47460        -0.004192     -0.000053     -0.006378
Li	      7.43675      4.31008      4.88496         0.005152      0.011124      0.004484
Li	      2.86701      3.40499      2.37192        -0.019587      0.001357     -0.004646
Li	      6.06494      3.36309      2.43281         0.017607     -0.000687     -0.004012
Sc	      5.93057      5.09689      0.11749         0.012539     -0.005185      0.000487
Mn	      4.39721      5.96408      2.49053        -0.006739     -0.010782      0.003592
V	      4.39681      4.10881      4.84928        -0.002856      0.005729      0.011139
Cr	      6.04725      1.72621      4.85368         0.022143     -0.000330      0.003430
Fe	      5.91255      6.84617      4.95378        -0.004578     -0.022596     -0.001158
Co	      1.54972      0.86491      2.44238        -0.002047     -0.005897      0.005065
Cu	      4.36833      2.53617      0.12385         0.002610      0.013904     -0.014398
Cu	      1.49919      2.57276      0.06714         0.007715     -0.005897      0.012598
Ni	      4.51745      0.83387      2.40337         0.000226     -0.002701     -0.001526
O	      5.98572      8.48522      6.04801         0.008508      0.020074     -0.000009
O	      2.93353      8.65330      6.13167         0.003443      0.003295     -0.006880
O	      7.40411      7.74667      3.74883         0.003652     -0.013004      0.009510
O	      4.43938      7.60707      3.64597        -0.004913      0.013351      0.000097
O	      3.02860      6.86634      1.50183         0.012821     -0.005647     -0.001069
O	      5.79997      6.73578      1.41711        -0.000694     -0.004592     -0.006303
O	      7.26961      5.98158      6.11471        -0.007856     -0.010246      0.001384
O	      4.51464      5.85204      6.04093        -0.005324      0.007263     -0.009334
O	      3.16093      5.08189      3.74461         0.020768      0.000366     -0.001261
O	      5.75290      5.20626      3.73662        -0.002138     -0.012200     -0.000185
O	      4.39046      4.43514      1.38960         0.002120     -0.006584      0.006962
O	      1.47371      4.20958      1.16620        -0.003841     -0.004102      0.002745
O	      3.12918      3.59279      6.00648        -0.004644     -0.009582     -0.004468
O	      5.85229      3.46665      5.84574        -0.019573      0.003410     -0.005012
O	      4.52581      2.64929      3.77553        -0.000564      0.000903      0.005041
O	      1.50835      2.40380      3.57869        -0.004089      0.006386      0.011521
O	      6.05579      1.60136      1.26677        -0.006467      0.001643     -0.001609
O	      3.04646      1.63825      1.33306         0.009849     -0.000189     -0.017595
