# total energy = -218.03503650 eV
 
CRYSTAL
PRIMVEC
5.975452 0.015415 -0.054111 
1.478976 7.699231 0.024502 
1.527683 2.564468 7.248645 
PRIMCOORD
36 1
Li	      1.68630      7.66407      0.06397         0.017597      0.007691     -0.005665
Li	      4.43599      7.65069      0.09607         0.010163      0.004677      0.002008
Li	      4.38178      9.37914      4.93500         0.008165     -0.005850     -0.007684
Li	      2.94241      5.19402      0.11154         0.008842     -0.001900     -0.002568
Li	      3.03892      6.96237      4.83018        -0.004133      0.002664      0.005501
Li	      1.56638      5.94790      2.42486        -0.005100      0.005761      0.004408
Li	      1.49303      4.25669      4.73665         0.006260      0.006728      0.001419
Li	      2.89819      3.40924      2.25682        -0.003960     -0.003474      0.005796
Li	      6.09649      3.39515      2.32724        -0.003415     -0.011943     -0.003030
Sc	      6.01786      5.17137      0.07238        -0.015855     -0.001465     -0.017052
Mn	      4.47124      2.52850     -0.05074        -0.001480     -0.007198     -0.024485
V	      4.37801      4.15136      4.71377         0.007018     -0.002860      0.011303
Cr	      6.06491      1.75729      4.82437        -0.000886     -0.001687     -0.007060
Fe	      5.93870      6.95477      4.81007        -0.021049     -0.007518      0.000417
Co	      1.49085      2.59394      0.03454        -0.000677     -0.004624     -0.001810
Cu	      1.55673      0.83495      2.50166         0.004873      0.004620      0.009016
Cu	      4.44858      5.98874      2.43204         0.007258     -0.003506     -0.012050
Ni	      4.48275      0.84774      2.35143         0.007762     -0.012955     -0.011608
O	      6.07201      8.57896      5.99860         0.011601     -0.003313      0.003626
O	      2.92302      8.66108      6.11610        -0.010078      0.020828      0.001973
O	      7.38499      7.77697      3.71135        -0.007206      0.001769      0.003762
O	      4.57443      7.83506      3.74879         0.010254      0.002938      0.018557
O	      3.08900      6.89586      1.45086        -0.004939     -0.004528     -0.001986
O	      5.82903      6.77283      1.36337        -0.006397     -0.011782     -0.006540
O	      7.34686      5.96551      6.00304        -0.009970      0.009493      0.003288
O	      4.59710      5.84914      5.96840        -0.002087     -0.000948     -0.006751
O	      3.19506      5.10679      3.63578        -0.008744      0.011074      0.012557
O	      5.76350      5.21811      3.62261         0.006638     -0.001047      0.020261
O	      4.47528      4.05901      1.01819        -0.003081     -0.003562     -0.001256
O	      1.49361      4.25275      1.18627         0.007201      0.006522      0.011041
O	      3.13456      3.57723      5.85911        -0.003668     -0.008909      0.007148
O	      5.88896      3.56183      5.80803         0.004476      0.014118     -0.013813
O	      4.57668      2.68640      3.69364        -0.004924      0.000307     -0.011204
O	      1.42585      2.43578      3.60075        -0.006446     -0.002187     -0.003472
O	      5.85233      1.66188      0.96884        -0.003531     -0.003936      0.014331
O	      3.12040      1.72443      1.05233         0.009516      0.006005      0.001622
