# total energy = -221.37755575 eV
 
CRYSTAL
PRIMVEC
5.828945 0.033661 -0.083191 
1.366553 7.824023 0.166460 
1.528581 2.779948 7.272159 
PRIMCOORD
36 1
Li	      3.01264      1.89817      4.80792        -0.003450     -0.001869     -0.004337
Li	      5.84725      1.79621      4.77696        -0.000725     -0.005065     -0.002367
Li	      5.78741      8.76583      2.58114        -0.003917      0.004691      0.003577
Li	      5.77735      5.31301      0.07741         0.002715      0.003130      0.001686
Li	      2.89213      7.02446      4.97657         0.002969     -0.006426     -0.007172
Li	      4.35736      6.02295      2.56646        -0.001594     -0.004262     -0.002988
Li	      1.42325      2.68751      0.06299         0.000535      0.005295     -0.003167
Li	      4.37613      4.40671      4.68916         0.001742     -0.013687     -0.004153
Li	      2.92419      3.65396      2.53568         0.003616     -0.000190      0.000709
Sc	      4.34020      2.70051      0.07064         0.011821      0.000610      0.004404
Mn	      5.80052     10.60780      7.37993         0.001985     -0.007085     -0.002695
V	      2.90708      8.78310      2.73826         0.007355      0.000394      0.007023
Cr	      2.81620      5.22932      0.10253         0.000800      0.001030      0.003543
Fe	      2.85898     10.52177      7.37334        -0.005637      0.012963      0.009663
Fe	      1.57707      4.50131      4.83213        -0.001094      0.000388     -0.002492
Co	      5.76960      3.52550      2.47176        -0.004084     -0.001961      0.006603
Cu	      5.81538      7.18402      4.86810         0.000016      0.000546     -0.004851
Ni	      1.39717      6.09983      2.54367        -0.007276     -0.002273     -0.003742
O	      5.74797      9.02249      6.31109         0.001385      0.000699      0.005858
O	      2.92651      8.90918      6.31512        -0.006785      0.007358      0.005032
O	      7.27020      7.88295      3.60042         0.004935     -0.002525     -0.003742
O	      4.23683      8.00730      3.66564         0.004951     -0.003260      0.004502
O	      2.86607      7.04294      1.28663         0.000928     -0.001644      0.005169
O	      5.70227      7.09723      1.21030        -0.001701      0.006494      0.003063
O	      7.22712      6.14346      5.93730        -0.004973      0.000353      0.004942
O	      4.45362      6.46420      6.15746        -0.009252     -0.001340      0.000029
O	      2.87737      5.27349      3.71835        -0.002181     -0.006442      0.000206
O	      5.88249      5.18108      3.62975        -0.005867      0.000077     -0.007616
O	      4.30760      4.37238      1.20331        -0.002573     -0.004653     -0.003820
O	      1.38730      4.41197      1.32058         0.001772      0.003656     -0.004209
O	      2.94396      3.60477      6.09833         0.005314      0.004175      0.003909
O	      5.82990      3.64673      6.11235        -0.001128      0.004331     -0.000153
O	      4.51344      2.73831      3.48079         0.010513      0.007970     -0.007375
O	      1.48626      2.61593      3.59329        -0.002132     -0.009511     -0.002799
O	      5.93913      1.72652      1.19280        -0.001252      0.002413     -0.003858
O	      2.84997      1.60806      1.12861         0.002268      0.005620      0.001615
