# total energy = -98.74007597 eV
 
CRYSTAL
PRIMVEC
0.000429 2.145891 2.144499 
6.941954 4.913687 -7.054952 
-4.264770 2.177013 -2.176462 
PRIMCOORD
16 1
Li	      0.36591      0.44730     -0.44649         0.025936      0.021145     -0.022679
Li	     -1.99469      4.47367     -2.32688         0.000336     -0.000438      0.000179
Li	     -0.09156      4.17697     -4.17640        -0.026440     -0.021628      0.023746
Li	      0.13713      2.31156     -2.31108        -0.000198     -0.000353     -0.000086
Ti	      2.52031      6.90585     -4.75799        -0.029458      0.001518     -0.002577
Ti	      4.70004      4.77664     -4.77471         0.033578     -0.001136      0.001850
Ni	     -1.67143      2.60168     -0.45513        -0.266584     -0.118717      0.115653
Ni	      1.94570      4.16785     -2.02324         0.266974      0.118912     -0.116694
O	      0.54609      7.08875     -4.94030         0.099605      0.075740     -0.076168
O	      0.19593      4.51614     -2.36971        -0.365496      0.038336     -0.040738
O	      2.67693      4.91681     -4.91371         0.065270      0.087984     -0.085781
O	      0.07865      2.25403     -0.10869         0.364331     -0.036949      0.040318
O	      2.39737      2.38594     -2.38617         0.100165     -0.193781      0.197716
O	      2.40708      6.77243     -6.77056        -0.101049     -0.076861      0.076785
O	     -2.12301      2.23803     -2.23705        -0.097812      0.192569     -0.196073
O	      4.54044      6.76729     -4.62060        -0.069159     -0.086342      0.084549
