# total energy = -221.17011599 eV
 
CRYSTAL
PRIMVEC
5.796730 0.045800 -0.063610 
1.374553 7.899560 0.231044 
1.548392 2.864102 7.305452 
PRIMCOORD
36 1
Li	      2.98925      1.94046      4.81094        -0.000062     -0.000908      0.006006
Li	      5.86492      1.91800      4.74845         0.006061      0.010397      0.001085
Li	      4.39162      1.03167      2.45864         0.000042     -0.000284      0.011658
Li	      5.76354      5.32251      0.09491         0.004440     -0.010458      0.000574
Li	      2.91679      6.98760      4.97851        -0.002845     -0.006292     -0.007514
Li	      4.31006      6.12135      2.70132         0.005928     -0.004888     -0.003289
Li	      1.40248      2.70567      0.00451        -0.001706      0.007436      0.002642
Li	      4.30482      4.45288      4.67853         0.003789      0.016157     -0.008024
Li	      2.92799      3.76695      2.66898        -0.001662     -0.001771     -0.013291
Sc	      4.33753      2.75035      0.13665        -0.010324     -0.003484     -0.012670
Mn	      2.93939     10.72988      7.49654        -0.002928      0.015080      0.006994
V	      2.91146      8.87266      2.74451        -0.003211      0.020770      0.010927
Cr	      2.78835      5.28293      0.18206        -0.002295     -0.016073     -0.005663
Fe	      5.80184      7.27989      4.96434         0.002371     -0.011340     -0.003955
Fe	      5.86236     10.70361      7.40486        -0.006950      0.009406      0.007497
Co	      5.80532      3.64775      2.47743         0.014110      0.001023     -0.004962
Cu	      1.52527      4.59903      4.95899         0.013363     -0.014280     -0.009478
Ni	      1.40290      6.17388      2.61711        -0.000985      0.006807      0.002681
O	      5.74358      9.00553      6.28394         0.002241      0.002726     -0.003683
O	      2.96740      9.16348      6.45196        -0.006562      0.000348     -0.002903
O	      7.33132      8.04938      3.67305         0.003797     -0.002754     -0.000107
O	      4.32832      8.07583      3.80515         0.003603     -0.004353     -0.006549
O	      2.81256      7.06261      1.29441        -0.010811     -0.001529      0.001794
O	      5.81485      7.16107      1.23017        -0.003433      0.006970      0.010616
O	      7.17949      6.53298      6.18092         0.005249      0.008510     -0.005758
O	      4.41067      6.54915      6.29394         0.006005      0.009031      0.014155
O	      2.83181      5.37180      3.80418         0.011164      0.004061     -0.007689
O	      5.81269      5.52069      3.86542         0.005898      0.006669     -0.001104
O	      4.29855      4.42342      1.33149        -0.002127     -0.002982      0.001409
O	      1.36953      4.46159      1.42125        -0.018434      0.005059      0.007524
O	      2.93250      3.63636      6.13694        -0.009472     -0.007009      0.009062
O	      5.97693      3.73394      6.17275        -0.002196     -0.005183      0.003500
O	      4.54831      2.82932      3.52670         0.009432      0.007428     -0.001880
O	      1.42442      2.56709      3.42018         0.000406     -0.016615      0.001623
O	      5.87747      1.64700      1.11045        -0.010742     -0.009519      0.000703
O	      2.80434      1.55922      1.17175        -0.001156     -0.018157     -0.001932
