# total energy = -217.12619168 eV
 
CRYSTAL
PRIMVEC
5.883635 -0.008055 0.001033 
1.324676 7.720439 0.059316 
1.628273 2.620012 7.214769 
PRIMCOORD
36 1
Li	      3.10305      1.72157      4.83476         0.001732      0.000629      0.002229
Li	      5.87848      1.73885      4.73584        -0.000578     -0.000010     -0.001950
Li	      5.78847      8.58945      2.53118         0.000548      0.003847      0.004727
Li	      5.81808      5.16930      0.05219        -0.008336      0.002433     -0.009614
Li	      2.93851      6.82318      4.87252        -0.006511      0.009939     -0.002679
Li	      4.39828      5.90201      2.57276         0.002507     -0.002052      0.003851
Li	      1.42878      2.57265      0.00038         0.002890     -0.002623      0.005951
Li	      4.38533      4.30583      4.63899        -0.001309      0.007920     -0.009575
Li	      2.97857      3.53979      2.51154         0.004582      0.005304      0.004244
Sc	      4.38221      2.59648      0.09821        -0.008492     -0.010430      0.008935
Mn	      2.95846     10.27658      7.24098        -0.007180     -0.003131      0.003262
V	      1.56008      0.92271      2.50364        -0.016156      0.006301     -0.012252
Cr	      2.82283      5.13358      0.07506         0.015024      0.003128     -0.002370
Fe	      1.61823      4.37151      4.79711        -0.018393     -0.012010     -0.011281
Co	      5.86219      3.47625      2.43170         0.007407      0.002205     -0.001717
Cu	      5.93217      6.96889      4.87679         0.015334      0.015734     -0.005618
Cu	      5.92003     10.29247      7.21367        -0.004409     -0.019405     -0.008177
Ni	      1.38861      6.02261      2.48504         0.012874      0.018146      0.005350
O	      5.84509      8.57004      6.08686        -0.005165     -0.002573      0.007189
O	      3.04715      8.68099      6.23361         0.009693     -0.009715      0.003427
O	      7.27730      7.73988      3.60949        -0.011858     -0.008182     -0.003048
O	      4.13809      7.86411      3.49678         0.007826     -0.012183      0.005706
O	      2.74327      6.92533      1.16940         0.006231     -0.010838      0.002698
O	      5.85238      6.93038      1.15160         0.002997     -0.006225     -0.001639
O	      7.48581      5.86437      6.06880         0.016143      0.003451      0.011416
O	      4.57905      6.18189      6.09125        -0.001050     -0.004626      0.007809
O	      2.88818      5.17182      3.65390        -0.001791      0.006427     -0.005485
O	      5.92904      5.19481      3.75651         0.001358      0.001380      0.019995
O	      4.37366      4.29319      1.23277        -0.006707     -0.001393      0.003272
O	      1.36381      4.33739      1.31536        -0.001976      0.001952     -0.005143
O	      2.97566      3.36973      6.00863         0.001480      0.000601      0.002766
O	      6.15156      3.36985      6.09620         0.004261      0.005518     -0.011747
O	      4.59289      2.69556      3.46357        -0.005486      0.001963     -0.001563
O	      1.41049      2.60197      3.48383        -0.007117      0.009048     -0.007627
O	      5.94888      1.54414      1.17617         0.000531     -0.002205     -0.001536
O	      2.84010      1.61601      1.16869        -0.000903      0.001674      0.000195
