# total energy = -221.74562372 eV
 
CRYSTAL
PRIMVEC
6.004154 0.004915 0.005887 
1.381531 7.650753 -0.020489 
1.654744 2.362193 7.257923 
PRIMCOORD
36 1
Li	      2.98136      1.59591      4.67011        -0.000594     -0.006367     -0.001782
Li	      1.55710      0.95028      2.46975        -0.004049     -0.008083      0.001163
Li	      4.60732      7.38831      7.21116         0.005403     -0.007164      0.002179
Li	      3.16886      6.62190      4.89914         0.009963      0.018449     -0.002754
Li	      4.35208      2.61186     -0.00726         0.012386     -0.000995      0.016699
Li	      1.62494      2.65478     -0.06408         0.007769     -0.000257     -0.000238
Li	      4.56965      4.16927      4.83455         0.003342     -0.007923      0.001058
Li	      3.06499      3.19533      2.51591         0.004033     -0.007837      0.005084
Li	      6.03030      3.22527      2.51593        -0.013166     -0.008490      0.000018
Sc	      7.58442      7.35434      7.19773         0.010267     -0.003241     -0.007090
Ti	      4.51147      2.49412      7.15092        -0.001956      0.014324      0.010919
V	      1.56488      5.84519      2.39854        -0.011674     -0.007809     -0.009060
Cr	      5.95774      6.68114      4.87039        -0.001746     -0.004493      0.006187
Fe	      4.45918      5.80209      2.44226        -0.001114      0.011410     -0.000414
Co	      5.95983      0.05051      0.00718        -0.000886      0.004173     -0.004262
Cu	      4.52633      0.84903      2.42719        -0.007390     -0.006532     -0.005907
Ni	      1.57432      4.09764      4.82498        -0.004448      0.002154      0.002804
Ni	      6.11611      1.61456      4.74149        -0.004532      0.003836     -0.009009
O	      6.08161      8.37094      6.10343        -0.003108      0.005802      0.002977
O	      2.99284      8.53150      6.13694        -0.005666      0.006332     -0.000842
O	      7.36434      7.47907      3.50491         0.007327     -0.005322      0.000044
O	      4.58454      7.45686      3.61374         0.006592     -0.005542     -0.000729
O	      3.00617      6.73838      1.24907         0.011820      0.004812      0.001579
O	      5.97850      6.75870      1.22717        -0.001732      0.008682      0.003583
O	      7.50409      5.81800      5.93792         0.001038     -0.000164     -0.006156
O	      4.60767      5.84444      5.98349         0.008540      0.005077     -0.004159
O	      2.93576      5.11199      3.52878         0.000324      0.002716      0.001648
O	      6.07424      5.12613      3.59090        -0.006445     -0.005184     -0.007279
O	      4.53148      4.29384      1.26458         0.004853     -0.008222     -0.000646
O	      1.45055      4.41732      1.27518         0.003059      0.011619      0.001267
O	      3.12357      3.22884      6.18003         0.002251      0.001369     -0.003560
O	      6.00626      3.16716      6.13786        -0.007031     -0.000468      0.008735
O	      4.58743      2.37154      3.61618        -0.000799     -0.013197      0.007648
O	      1.54102      2.49905      3.66009        -0.012801     -0.000134      0.002294
O	      5.95340      1.45894      1.14686        -0.001442      0.006265     -0.001591
O	      3.04671      1.49254      1.17529        -0.008390      0.000403     -0.010407
