# total energy = -232.10304102 eV
 
CRYSTAL
PRIMVEC
6.122317 -0.114413 0.122359 
1.255969 7.627824 -0.108679 
1.782744 2.220551 7.333722 
PRIMCOORD
36 1
Li	      3.13074      1.46549      4.80235         0.004871     -0.001639     -0.000152
Li	      1.56154      0.91479      2.35752        -0.000317     -0.002713      0.011692
Li	      2.98639      4.87302      0.01219        -0.010138     -0.006992     -0.004101
Li	      3.24900      6.46143      4.93243         0.002476      0.001381     -0.002450
Li	      4.36677      2.50948      0.01362        -0.005318     -0.001833      0.001697
Li	      1.61189      2.53463      0.05265         0.001278     -0.013248     -0.002574
Li	      4.65741      3.93808      4.99096         0.003625     -0.003131     -0.010851
Li	      3.22572      3.08433      2.60437         0.005002      0.006539     -0.004985
Li	      5.99711      3.17082      2.47849         0.000352      0.006175      0.004749
Sc	      7.73424      7.08780      7.29272         0.011906      0.005608      0.004683
Sc	      6.27539      1.45627      4.83639         0.001133      0.005758      0.007091
Ti	      2.91405      0.04460      0.07300         0.002477      0.002604     -0.004721
V	      1.49361      5.79007      2.35115         0.010057     -0.011605      0.000267
Cr	      6.00142      6.45961      4.92064        -0.012788     -0.006441      0.000700
Fe	      4.46681      5.71087      2.48320        -0.006018      0.012668      0.000678
Co	      6.07004     -0.02271      0.08171        -0.010760      0.008359      0.013904
Cu	      1.61033      4.06390      4.80751        -0.002817      0.012212      0.004927
Ni	      4.65027      0.73710      2.52233         0.007265      0.006858      0.000449
O	      6.20235      8.10716      6.18962        -0.006121     -0.008295     -0.002402
O	      2.93705      8.40297      6.05432         0.005375     -0.004893      0.001406
O	      7.44354      7.29730      3.56378        -0.000504     -0.006164      0.001567
O	      4.62441      7.29141      3.69896         0.001378      0.003793      0.001446
O	      3.02935      6.64248      1.26869         0.000651     -0.001005     -0.003564
O	      6.00335      6.64058      1.21778        -0.004661      0.003563     -0.000121
O	      7.57737      5.57039      5.97857        -0.001153     -0.005937     -0.005185
O	      4.66393      5.62251      6.04952         0.000244      0.002056     -0.003911
O	      2.84963      5.01956      3.48494        -0.002504      0.008192     -0.001670
O	      6.05575      4.99256      3.55412         0.002857      0.007514      0.000665
O	      4.53935      4.17176      1.28516        -0.008601     -0.005428      0.008323
O	      1.35698      4.40577      1.17882        -0.002940      0.010699      0.006046
O	      3.33847      2.94387      6.38030         0.014561      0.000896     -0.008188
O	      6.21018      2.96405      6.30123         0.003455     -0.004085     -0.004120
O	      4.74907      2.30604      3.79905        -0.007000     -0.012206     -0.003089
O	      1.66278      2.46107      3.73019         0.003683     -0.002581      0.001674
O	      6.14868      1.38365      1.24565        -0.000818     -0.011329     -0.008025
O	      3.10900      1.44121      1.25674        -0.000188      0.004649     -0.001854
