# total energy = -99.35276014 eV
 
CRYSTAL
PRIMVEC
-0.000384 2.116255 2.119747 
2.104887 -2.119352 0.002704 
13.218663 11.201523 0.028217 
PRIMCOORD
16 1
Li	      2.36648      0.27380      1.84111         0.002905      0.007528     -0.007260
Li	      1.92609      1.92931      0.18731        -0.006440     -0.009563      0.010243
Li	      6.87895      4.81614     -2.70965        -0.019528     -0.009450      0.009420
Li	      8.66279      6.59097     -6.60280         0.021562      0.015085     -0.014257
Ti	      4.44154      2.35539     -2.35060        -0.004982     -0.006424      0.005122
Ti	     13.07174      8.92777     -8.94265         0.065784      0.064851     -0.065790
Ni	      8.75308      4.58019     -4.59232         0.006731      0.007343     -0.008392
Ni	     10.70356      8.65998     -6.55613         0.096577      0.082301     -0.081195
O	     11.01061      8.98188     -8.99879         0.060899      0.061371     -0.060885
O	      8.66688      6.61676     -4.51512         0.091894      0.084972     -0.089672
O	     10.91726      6.76547     -6.78077        -0.141508     -0.129839      0.128294
O	      6.68494      4.61048     -4.61907        -0.084915     -0.082483      0.085414
O	      4.55299      2.47634     -0.35449         0.095785      0.099758     -0.099557
O	      4.34620      4.36778     -2.24397        -0.085798     -0.085017      0.086574
O	     12.95317     10.91411     -8.80952        -0.100112     -0.103983      0.105960
O	      2.14497      0.04182     -0.04392         0.001147      0.003548     -0.004021
