# total energy = -232.22406129 eV
 
CRYSTAL
PRIMVEC
5.983535 0.004253 -0.001636 
1.376089 7.792977 0.134480 
1.640267 2.554867 7.351556 
PRIMCOORD
36 1
Li	      2.99384      1.70564      4.87060        -0.002566      0.006120      0.004661
Li	      1.50501      0.99772      2.49209        -0.002952     -0.006507     -0.000433
Li	      2.97359      5.01640      0.12752         0.001610     -0.001239     -0.003351
Li	      3.14624      6.85872      5.03725         0.004890      0.005173      0.003760
Li	      4.37115      2.67675      0.02183        -0.005428      0.002851      0.003939
Li	      1.49398      2.60865      0.02788        -0.006594      0.005067     -0.002883
Li	      4.55517      4.31209      4.96899         0.002763      0.001452      0.001392
Li	      2.96231      3.50350      2.43509        -0.006759     -0.001023     -0.019000
Li	      6.02794      3.36636      2.53727        -0.004901     -0.006755      0.001056
Sc	      7.55015      7.62221      7.37125         0.000803      0.006449      0.001522
Sc	      4.56790      0.98785      2.46056         0.008294     -0.000253     -0.006305
Ti	      4.54818      2.77400      7.27750         0.001044     -0.003907      0.011817
V	      1.54920      5.97978      2.52696        -0.000697     -0.014144     -0.013591
Cr	      5.93912      6.85995      5.00635         0.004641     -0.002783      0.002992
Fe	      4.43973      5.95384      2.56094        -0.007298     -0.003579     -0.013562
Co	      0.01447      0.07642      0.00940         0.000051     -0.005174      0.010450
Cu	      6.10338      1.74167      4.88628         0.003740     -0.005335      0.014873
Ni	      1.54993      4.28728      5.00142        -0.000934     -0.004484      0.005311
O	      6.12593      8.65977      6.14876         0.002737      0.009164     -0.012739
O	      2.85639      8.81263      6.17138        -0.011889      0.003384     -0.012252
O	      7.36858      7.52134      3.57718         0.014313      0.017640      0.009622
O	      4.54505      7.60730      3.74961        -0.002985     -0.003029     -0.007333
O	      2.99091      6.84136      1.33406         0.006197     -0.008762     -0.010025
O	      5.86041      6.87519      1.32500        -0.000758      0.005534     -0.003670
O	      7.47809      6.05620      6.10040         0.001787     -0.002544     -0.000157
O	      4.59016      6.12792      6.16846         0.001854      0.001526     -0.007624
O	      2.91080      5.17217      3.62285        -0.000046     -0.003692      0.001072
O	      6.03487      5.26342      3.73582         0.009339     -0.000399      0.001283
O	      4.49030      4.40053      1.35836        -0.007138     -0.000347      0.001733
O	      1.43421      4.51929      1.37107        -0.010528      0.000788     -0.000185
O	      3.18504      3.42272      6.21831         0.001045     -0.006001      0.005246
O	      5.97375      3.48956      6.32571         0.001803      0.003754     -0.011581
O	      4.69015      2.47801      3.80576         0.006377      0.011572      0.012626
O	      1.44888      2.59145      3.86945         0.004581     -0.012148      0.007853
O	      6.00750      1.66174      1.24422        -0.003877      0.001000      0.012033
O	      2.97189      1.56810      1.22106        -0.002520      0.010628      0.011453
