# total energy = -233.10382474 eV
 
CRYSTAL
PRIMVEC
5.924514 -0.003602 -0.018719 
1.518702 7.863079 0.058587 
1.472775 2.869343 7.292815 
PRIMCOORD
36 1
Li	      1.47091      2.99129      7.28118         0.009168      0.001091     -0.004952
Li	      4.52260      7.89026      0.16013        -0.002885      0.008546     -0.005904
Li	      5.91740      1.93540      4.96831         0.001741      0.005595      0.004789
Li	      4.44412      0.99359      2.33908         0.008612     -0.000505      0.003365
Li	      1.51931      0.98789      2.33198        -0.004165      0.018073     -0.001814
Li	      5.92013      5.26485      0.07510         0.000492      0.004042     -0.001918
Li	      4.45575      6.27150      2.42164         0.009485      0.004962      0.011131
Li	      1.49231      4.51916      4.95944         0.001479     -0.008130      0.000261
Li	      2.99511      3.45957      2.32181         0.002187      0.001639     -0.009776
Sc	      4.42623      4.44382      4.86013        -0.006629     -0.002377     -0.004803
Sc	      5.97239      7.16819      4.87428        -0.005426     -0.016091      0.008791
Ti	      7.38868      6.25434      2.28657         0.002526     -0.005592     -0.000876
V	      2.84095      1.98287      4.76156        -0.001000      0.006376      0.020173
Cr	      2.98849      5.22859      0.06903        -0.001255     -0.017473      0.006555
Fe	      2.94350      7.16344      4.84886         0.005325     -0.003857      0.004065
Co	      4.47081      2.53227      0.11424         0.006354     -0.004494     -0.002131
Cu	      1.47276      2.56542      0.05249         0.004380     -0.002975      0.003047
Ni	      5.95922      3.53337      2.43978        -0.002266      0.007367      0.012092
O	      5.79362      8.87459      6.05080         0.003855      0.007298     -0.012247
O	      3.07169      8.85604      6.04673        -0.000195      0.007728     -0.003521
O	      7.44032      7.83267      3.62732         0.003082      0.000632      0.009474
O	      4.43813      8.06478      3.77654         0.006873     -0.004925      0.000007
O	      2.94233      6.85122      1.24605        -0.002468      0.001387      0.003443
O	      6.04351      6.99167      1.32845        -0.003420      0.007189      0.004416
O	      7.45675      6.34531      6.12863        -0.006766      0.003740     -0.019907
O	      4.37540      6.38499      6.10599        -0.006858      0.004020     -0.012088
O	      2.98439      5.51778      3.75924        -0.009930      0.015882      0.001127
O	      5.96363      5.38370      3.63808         0.006889      0.001549     -0.007417
O	      4.43210      4.22274      1.08515        -0.010410      0.004982     -0.006250
O	      1.54813      4.57969      1.38319        -0.000781     -0.009352     -0.005235
O	      2.97308      3.49085      5.94812         0.001031     -0.016910     -0.010797
O	      5.91372      3.92614      6.20732        -0.004062      0.002132      0.001378
O	      4.42843      2.73468      3.73822        -0.000130     -0.000056      0.002460
O	      1.54117      2.66480      3.73045        -0.009164     -0.001405     -0.011962
O	      6.02144      1.89490      1.24197         0.000285     -0.006211      0.002048
O	      2.97413      1.85334      1.08702         0.004048     -0.013878      0.022977
