# total energy = -232.87260353 eV
 
CRYSTAL
PRIMVEC
5.934248 0.040482 -0.058324 
1.578657 7.703981 -0.131443 
1.447003 2.651190 7.230172 
PRIMCOORD
36 1
Li	      1.32911      2.61926      7.20505         0.005212      0.002952      0.002707
Li	      3.12517      0.06381      0.07805         0.005021     -0.001581     -0.010946
Li	      5.88990      1.82320      4.89980        -0.002420     -0.000985      0.005818
Li	      4.41753      0.96204      2.33745         0.007971      0.007990      0.000093
Li	      1.58559      0.87026      2.28392         0.006586     -0.013441      0.006431
Li	      5.89306      5.16217     -0.12904        -0.002793      0.006581      0.010682
Li	      4.49446      6.06290      2.24862         0.000244     -0.002213     -0.001009
Li	      1.48930      4.37632      4.80324        -0.002098     -0.009348     -0.006003
Li	      3.06704      3.42769      2.28277         0.005392     -0.004228      0.002508
Sc	      4.55152      4.34468      4.71753         0.002036     -0.009989     -0.017136
Sc	      1.43855      2.46229      0.04043         0.001976     -0.014344      0.024357
Ti	      7.39868      6.11750      2.12196         0.005918     -0.002838      0.005100
V	      2.86125      1.88055      4.72029         0.004582      0.012849     -0.009621
Cr	      3.07926      5.16088     -0.09813        -0.004193      0.018767      0.012420
Fe	      2.93340      6.95499      4.64629        -0.011361     -0.003046     -0.000392
Co	      5.97164      6.96035      4.67487        -0.004274     -0.002444     -0.000992
Cu	      4.46697      2.47423      0.04176         0.007851     -0.003377     -0.001947
Ni	      5.93402      3.43909      2.35213        -0.001389     -0.005660      0.004072
O	      5.84955      8.55521      5.78323        -0.000742      0.011554     -0.000776
O	      3.15998      8.64042      5.84133         0.001247     -0.002953      0.002772
O	      7.34806      7.63610      3.48658        -0.008318     -0.007630      0.003761
O	      4.54725      7.79554      3.63066        -0.007812     -0.003039     -0.001383
O	      2.93158      6.72116      1.13840        -0.001185     -0.007655     -0.006045
O	      6.07044      6.80807      1.11676        -0.005433      0.001883     -0.007844
O	      7.43836      6.23183      5.78784         0.003944      0.007126      0.000845
O	      4.48269      6.22320      5.83839        -0.005737      0.001687     -0.005067
O	      2.99710      5.30399      3.55155         0.005446      0.002992     -0.003067
O	      6.02197      5.26953      3.48291        -0.003474      0.002635      0.001267
O	      4.47832      4.21719      1.03072        -0.006144      0.003595     -0.001781
O	      1.56728      4.35505      1.14090        -0.003718     -0.005702      0.001199
O	      3.01043      3.48812      5.91157        -0.002824      0.000760      0.004571
O	      5.92651      3.61007      6.01318         0.001341      0.005682     -0.000767
O	      4.42493      2.61979      3.64840        -0.000127      0.006364      0.002122
O	      1.56165      2.53413      3.69348         0.008545      0.001484      0.005538
O	      6.02701      1.78388      1.22882         0.008318      0.008217     -0.011571
O	      2.91168      1.73169      1.13869        -0.007591     -0.002643     -0.009918
