# total energy = -225.54364309 eV
 
CRYSTAL
PRIMVEC
5.889859 0.049081 -0.037886 
1.578484 7.686219 -0.120178 
1.465311 2.651714 7.197949 
PRIMCOORD
36 1
Li	      1.37746      2.64175      7.19448         0.002591     -0.002831     -0.005738
Li	      4.62115      7.73768     -0.03543        -0.002960     -0.001169     -0.008594
Li	      5.84705      1.85088      4.86453         0.008181      0.003820      0.009057
Li	      4.38554      0.96839      2.31094         0.004293      0.006947      0.007124
Li	      1.56901      0.86733      2.29648         0.009169     -0.016371     -0.004048
Li	      5.87029      5.16765     -0.13511        -0.003342      0.005039      0.010141
Li	      4.47462      6.00831      2.29386        -0.007057      0.002641     -0.002024
Li	      1.47804      4.37068      4.75996         0.006913     -0.002354      0.005020
Li	      3.06911      3.44603      2.32032        -0.001710     -0.004646      0.002758
Sc	      1.46428      2.45548      0.02582        -0.003774      0.003447     -0.013866
Ti	      7.31298      6.11325      2.13534         0.011011     -0.004256      0.001459
V	      2.86492      1.89181      4.70876        -0.011111      0.009827      0.007224
Cr	      3.06688      5.15667     -0.07385         0.007100      0.000321     -0.013493
Fe	      2.97738      6.92944      4.64726         0.009555     -0.008223     -0.002629
Co	      4.49389      4.32008      4.72450        -0.023389      0.004322     -0.003137
Co	      5.96393      6.94612      4.66791         0.013422     -0.012995      0.000524
Cu	      4.43662      2.50690      0.02685         0.001330      0.001613      0.016148
Ni	      5.89031      3.42926      2.38168         0.001313     -0.006069      0.005531
O	      5.84915      8.55730      5.77487        -0.004479     -0.002074      0.000558
O	      3.15562      8.62903      5.84001        -0.001217      0.015070      0.002974
O	      7.35464      7.61121      3.48527        -0.022316      0.007024      0.003075
O	      4.55415      7.78956      3.61839        -0.002741     -0.011016      0.006503
O	      2.93438      6.70032      1.17433        -0.015091      0.004047      0.005446
O	      6.03458      6.81699      1.10770        -0.016580      0.002909     -0.012303
O	      7.41754      6.21698      5.78798         0.016877      0.002544     -0.002083
O	      4.50767      6.21780      5.81807         0.013547     -0.014116     -0.002018
O	      3.10140      5.21960      3.62365         0.012533     -0.005792     -0.001473
O	      6.00166      5.28229      3.50005        -0.001492      0.013471      0.007825
O	      4.46682      4.22165      1.04724        -0.001544      0.003950     -0.001568
O	      1.56923      4.34746      1.15635         0.002010      0.002826     -0.003963
O	      2.98315      3.46439      5.91046         0.011868     -0.003804      0.002845
O	      5.79932      3.68121      5.91576         0.007347      0.003788      0.005003
O	      4.41460      2.65979      3.66407         0.008870     -0.003963     -0.002696
O	      1.56054      2.53538      3.67734        -0.016630      0.004890     -0.004149
O	      5.98774      1.77647      1.21773        -0.018157      0.012323     -0.017877
O	      2.91763      1.73072      1.14775         0.005663     -0.011140      0.002447
