# total energy = -223.32756724 eV
 
CRYSTAL
PRIMVEC
5.854363 -0.030214 0.002377 
1.466574 7.843074 0.129110 
1.468846 2.919288 7.313747 
PRIMCOORD
36 1
Li	     -0.01336      0.12577      0.03011         0.002709     -0.005595      0.005033
Li	      2.98153      0.04013      0.08359         0.000318      0.000676      0.001984
Li	      5.84705      2.03937      5.08713        -0.005894      0.024108      0.010076
Li	      4.38758      0.94523      2.33842        -0.004111      0.003518      0.007974
Li	      1.49360      0.95307      2.35006         0.001673      0.010202     -0.003742
Li	      5.82254      5.24409      0.14402        -0.008987     -0.002283     -0.000078
Li	      4.37200      6.14601      2.48472         0.005856     -0.004990     -0.000262
Li	      1.48240      4.54379      4.93668        -0.003670     -0.002118     -0.003806
Li	      2.95200      3.46232      2.34998         0.004822      0.002082      0.000383
Sc	      5.84412      7.12497      4.96616        -0.015506      0.013219     -0.003820
Ti	      7.27334      6.23176      2.37540         0.010643      0.002739     -0.012830
V	      2.89297      2.07819      4.74334         0.009357      0.015987     -0.022006
Cr	      2.94377      5.25813      0.13564         0.018812      0.007170      0.012883
Fe	      2.89763      7.15426      4.93848         0.008886     -0.002495     -0.020310
Co	      4.38865      2.51490      0.10485        -0.015541     -0.000840      0.012525
Cu	      4.42051      4.53725      4.89482         0.002020      0.003046     -0.007109
Cu	      1.44913      2.57965      0.09516         0.006548     -0.014049      0.001312
Ni	      5.84864      3.50396      2.48238        -0.003028     -0.006893      0.005321
O	      5.75253      8.89377      6.12871         0.009671     -0.005135      0.004129
O	      3.06226      8.94654      6.10321        -0.009247      0.004840      0.005214
O	      7.33592      7.76468      3.71933        -0.006743     -0.010991     -0.010735
O	      4.34890      8.08922      3.89188        -0.002434      0.003279      0.010916
O	      2.89028      6.88596      1.32795        -0.014154     -0.008137      0.005304
O	      5.94509      6.97096      1.39360         0.005687     -0.012724     -0.000302
O	      7.33334      6.33977      6.23201         0.011115     -0.009928     -0.004026
O	      4.27865      6.53269      6.28703        -0.010818     -0.010134      0.008864
O	      2.98511      5.49686      3.85721        -0.001679      0.005873      0.000040
O	      5.86869      5.35328      3.70273         0.002455      0.005924     -0.001208
O	      4.37230      4.22353      1.16337         0.000566     -0.004130     -0.009683
O	      1.51018      4.58759      1.44783        -0.009687      0.001584      0.000097
O	      2.98732      3.46236      5.89997        -0.001703      0.003780      0.004724
O	      5.80455      3.96794      6.17467        -0.000700      0.000537      0.000379
O	      4.30208      2.54238      3.68896        -0.002766     -0.000063      0.006260
O	      1.53577      2.69111      3.75501         0.005159     -0.000760      0.000455
O	      5.94232      1.84563      1.27589         0.006275     -0.005991     -0.000330
O	      2.94330      1.82954      1.09415         0.004098     -0.001305     -0.003630
