# total energy = -232.28295392 eV
 
CRYSTAL
PRIMVEC
5.981217 0.000190 0.026804 
1.464004 7.722177 0.009525 
1.577824 2.581162 7.295369 
PRIMCOORD
36 1
Li	      3.07430      5.18050      7.21660         0.001224     -0.001154     -0.001291
Li	      4.53705      7.65112      7.19471        -0.000736     -0.007178     -0.015652
Li	      3.02719      8.50458      2.53916         0.001825      0.006092     -0.003053
Li	      1.60452      6.01151      2.43594         0.003112      0.003334     -0.001585
Li	      4.44294      6.00133      2.60087         0.005127      0.001297     -0.002112
Li	      4.44465      9.33147      4.86602         0.003148     -0.003163      0.004864
Li	      1.56723      4.37284      4.84763        -0.005081     -0.006243     -0.004186
Li	      5.88830      6.82612      4.88777         0.005829     -0.009693     -0.004663
Li	      3.21377      6.82217      4.82586        -0.005126     -0.001076     -0.004855
Sc	      4.31466      7.72702      0.07704        -0.001066     -0.004507      0.004640
Sc	      5.92622      8.51099      2.53528        -0.014441      0.002382      0.001330
Ti	      6.02172      5.00272     -0.00922        -0.001325      0.016021      0.011459
V	      7.60272      9.37019      4.87490         0.001949      0.005109      0.010871
Cr	      4.51377      4.32046      4.85720        -0.009276      0.000479      0.017828
Fe	      2.86734      3.51167      2.39130         0.009400     -0.010950     -0.005217
Co	      5.99131      3.48049      2.45788        -0.005608     -0.004106     -0.001283
Cu	      0.06092      0.06868      0.02645        -0.010487      0.003073     -0.007382
Ni	      6.04601      5.19794      7.26993        -0.010477     -0.005266     -0.001331
O	      3.04592      1.79996      1.29481        -0.004980      0.018269     -0.000085
O	      5.91107      1.95087      1.33475         0.011686      0.000819      0.004679
O	      1.48071      4.35704      1.18357         0.004216     -0.004307     -0.000327
O	      4.53101      4.32987      1.21553         0.007342     -0.003316     -0.000650
O	      6.02306      6.93310      1.15740         0.006503     -0.002597      0.008627
O	      2.88782      6.95307      1.20622        -0.005135      0.003587     -0.002053
O	      1.43310      2.58635      3.61848         0.003240      0.006151     -0.004310
O	      4.56901      2.56376      3.75232        -0.002483     -0.007027      0.002511
O	      5.92653      4.97731      3.61525         0.006297      0.013940      0.001016
O	      3.05693      4.97634      3.62692        -0.005097      0.004423      0.007619
O	      4.53655      7.72590      3.65269         0.005345     -0.001657      0.007612
O	      7.47889      7.91732      3.81022         0.005442      0.002056      0.001674
O	      6.00957      3.35319      6.00278        -0.001608     -0.008781     -0.005422
O	      3.06369      3.42724      6.10344        -0.013714     -0.001877     -0.004519
O	      4.58976      5.88866      6.03530         0.001694     -0.006804     -0.012268
O	      7.54575      6.13531      6.20616         0.002341     -0.005025     -0.006003
O	      2.90309      8.54162      6.04859        -0.001121     -0.001577     -0.001442
O	      6.23391      8.59890      6.18967         0.012043      0.009274      0.004954
