# total energy = -226.92130432 eV
 
CRYSTAL
PRIMVEC
5.907582 -0.018021 0.007131 
1.423128 7.801409 0.164922 
1.527998 2.755356 7.297753 
PRIMCOORD
36 1
Li	      3.01882      5.43557      7.21385        -0.001433      0.004475     -0.003023
Li	      4.46253      7.81585      7.23977        -0.001311      0.000561     -0.008416
Li	      2.93153      8.62112      2.68013         0.005094      0.004557      0.006532
Li	      1.45585      6.12333      2.60082        -0.004278      0.005679      0.004080
Li	      4.44713      6.17287      2.70072         0.002361     -0.001622      0.002123
Li	      4.40894      9.45012      4.96627         0.000701      0.000357      0.000033
Li	      7.39243      4.59208      4.92354        -0.005379     -0.000598      0.004832
Li	      5.83901      6.93575      4.84456        -0.000911      0.007867      0.002802
Li	      3.08685      6.96261      4.94293        -0.000203      0.009145      0.000466
Sc	      4.33504      7.77947      0.29907         0.005581     -0.002298     -0.003046
Ti	      5.93172      5.03443      0.09713        -0.001375      0.005597      0.021074
V	      5.96468      1.82566      4.77124         0.003202     -0.002898     -0.005580
Cr	      4.43622      4.51475      4.94080         0.005961      0.007353      0.024721
Fe	      0.05548      0.02606      0.05106        -0.010710      0.002605     -0.008183
Fe	      2.90548      3.59967      2.49979         0.011647     -0.012310     -0.002852
Co	      5.89821      3.58894      2.53746        -0.011159      0.006090      0.014455
Cu	      5.82188      8.68743      2.65334        -0.006382     -0.003221      0.008695
Ni	      5.92539      5.37747      7.30570         0.004509     -0.000464      0.000292
O	      3.05051      1.76532      1.41139         0.010108     -0.001547     -0.007916
O	      5.70917      1.64711      1.29865        -0.004993      0.004211     -0.000858
O	      1.46532      4.29921      1.23632         0.003860     -0.013425     -0.000028
O	      4.42264      4.32383      1.22742         0.013620     -0.002931     -0.006067
O	      5.92488      6.76209      1.19228         0.005918      0.007991      0.005427
O	      2.83022      6.99832      1.32171         0.002854     -0.009496      0.010543
O	      1.40365      2.63482      3.72874        -0.000307     -0.002722      0.009535
O	      4.43244      2.80375      3.85297        -0.000862      0.002341     -0.007233
O	      5.86160      5.18888      3.74093        -0.004758      0.002094     -0.019173
O	      2.98586      5.12887      3.68859        -0.011239      0.019745     -0.001622
O	      4.50675      7.92039      3.71610        -0.007843      0.001429      0.001462
O	      7.22009      8.10345      3.82608        -0.010610      0.000975      0.002369
O	      5.94375      3.54781      6.09072        -0.000304     -0.002189     -0.003044
O	      3.00163      3.64675      6.23386        -0.002969     -0.004411     -0.008875
O	      4.48428      6.11555      6.09651         0.006772     -0.008924      0.002670
O	      7.42426      6.34489      6.24638         0.003084     -0.015144     -0.015565
O	      2.83983      8.84933      6.20190        -0.000371     -0.004582     -0.006981
O	      6.10202      8.88429      6.23913         0.002126     -0.004289     -0.013648
