# total energy = -226.84563100 eV
 
CRYSTAL
PRIMVEC
6.034698 -0.064239 0.081210 
1.522578 7.618787 -0.072432 
1.549602 2.431686 7.262406 
PRIMCOORD
36 1
Li	      0.02658      0.03825      0.11460         0.001196     -0.003996     -0.008864
Li	      3.09724      5.06774      7.17620        -0.009090     -0.008988      0.013683
Li	      4.54438      7.50256      7.19947         0.001315     -0.008672      0.008574
Li	      3.04409      8.34226      2.30614         0.006518     -0.005303     -0.008586
Li	      1.70027      5.96156      2.35772        -0.017015     -0.006575      0.007428
Li	      4.34202      5.94507      2.32539        -0.009901     -0.001541      0.004900
Li	      4.60597      9.16554      4.73941        -0.006015     -0.001804      0.004043
Li	      6.00878      6.62940      4.84122         0.020125     -0.007609     -0.001193
Li	      3.37764      6.64644      4.86267         0.008076      0.013693     -0.004200
Sc	      7.65874      9.11885      4.81721         0.013369      0.000895     -0.001272
Ti	      6.14479      5.06468      0.09484        -0.007407      0.011109     -0.015535
V	      1.62597      4.22977      4.83368        -0.006185      0.009918     -0.003305
Cr	      6.03242      8.28440      2.46887        -0.005611     -0.008757     -0.003147
Fe	      6.00111      4.97644      7.28685        -0.011153      0.002567     -0.012782
Fe	      4.30769      7.54407     -0.00769         0.013395     -0.008118      0.011019
Co	      6.05691      3.28712      2.45353         0.001731     -0.001742     -0.009226
Cu	      3.01358      3.35738      2.40106         0.002999      0.007265      0.000757
Ni	      4.56225      4.14626      4.86632         0.002554      0.002249      0.002632
O	      3.09760      1.61796      1.27582         0.006068      0.002342      0.004119
O	      5.75828      1.60490      1.32237         0.006002      0.001344     -0.002655
O	      1.34059      4.30909      1.11121        -0.005828     -0.006108      0.009523
O	      4.53881      4.17919      1.20412        -0.003875     -0.004997     -0.002509
O	      5.92620      6.71697      1.13668         0.000682     -0.007787     -0.002886
O	      3.01845      6.79678      1.08069        -0.012795      0.001776      0.001533
O	      1.60738      2.56435      3.67539         0.006543      0.013942      0.000044
O	      4.64143      2.33144      3.69620        -0.010321      0.014101      0.011510
O	      6.29053      4.82135      3.86283         0.016736     -0.005579      0.007066
O	      3.04918      4.91960      3.66337         0.009568      0.013557     -0.002359
O	      4.67125      7.59442      3.48157        -0.002826     -0.005696     -0.013285
O	      7.44575      7.57841      3.46069        -0.005941      0.010119      0.002116
O	      6.09379      3.28915      6.07992        -0.001473      0.018284      0.007438
O	      2.97562      3.33537      5.99880        -0.007701     -0.006909     -0.001083
O	      4.64495      5.74820      6.09550        -0.002382      0.000639      0.001990
O	      7.55318      5.75102      6.17691         0.010699     -0.007503      0.006232
O	      2.91754      8.24434      6.04253         0.000987     -0.009312     -0.008513
O	      6.19591      8.37576      6.11256        -0.003045     -0.006804     -0.003208
