# total energy = -226.67062838 eV
 
CRYSTAL
PRIMVEC
6.018813 -0.097279 0.093738 
1.475496 7.641529 -0.047684 
1.547083 2.454464 7.259263 
PRIMCOORD
36 1
Li	      0.18414     -0.03061      0.11487         0.003643      0.004423     -0.001492
Li	      3.04905      5.01089      7.20957         0.005589      0.000327     -0.006829
Li	      4.59188      7.59662      7.18844        -0.005884      0.000019      0.005087
Li	      3.06243      8.24661      2.40047         0.004038      0.003167     -0.003466
Li	      1.62433      6.03118      2.41393         0.002655      0.002559      0.005118
Li	      4.29395      5.99701      2.38768         0.002149      0.002193     -0.002002
Li	      4.45539      9.14744      4.80609        -0.002495     -0.005114      0.008134
Li	      5.92273      6.66399      4.82310        -0.005296      0.000505      0.005411
Li	      3.30862      6.70657      4.83830         0.001610      0.000113      0.004057
Sc	      7.56589      9.13069      4.84124         0.007057      0.004290      0.003085
Ti	      6.07813      5.12001      0.13046        -0.004007     -0.003237      0.001949
V	      1.58891      4.27907      4.87029        -0.004626      0.003050      0.006287
Cr	      4.43747      2.52189      0.01960        -0.002122      0.001185     -0.019214
Fe	      2.93923      3.36662      2.37928         0.004864     -0.010490     -0.006465
Fe	      5.95557      8.22441      2.45736        -0.001450     -0.004717      0.005956
Co	      6.00701      3.25899      2.46915         0.004856      0.006570     -0.001280
Cu	      2.90135     -0.04186      0.07876         0.006970      0.010184      0.007604
Ni	      4.50006      4.19747      4.87498        -0.001215      0.003995      0.001075
O	      3.06508      1.67852      1.25388         0.002340      0.001848      0.000464
O	      5.80601      1.74161      1.32366        -0.001831     -0.002334     -0.000468
O	      1.36180      4.13330      1.23742        -0.003790     -0.009824     -0.003224
O	      4.48087      4.15203      1.21357         0.001720     -0.004784      0.005354
O	      6.11961      6.55518      1.28216        -0.003057      0.007580      0.011416
O	      3.04234      6.79359      1.10502        -0.000867      0.003413      0.008313
O	      1.57701      2.57038      3.64523         0.000725     -0.004994     -0.005403
O	      4.56954      2.50913      3.58502         0.004343     -0.004085      0.003849
O	      6.18768      4.72152      3.74524        -0.006716     -0.009069     -0.004181
O	      2.97488      4.95197      3.62334        -0.002826      0.003838     -0.008090
O	      4.58862      7.58838      3.59727        -0.001177      0.001754     -0.005743
O	      7.44371      7.60921      3.59261         0.003431     -0.005075     -0.002568
O	      6.00293      3.31864      6.10418        -0.000488     -0.001406     -0.002968
O	      2.81199      3.38497      5.88500        -0.012514     -0.002844     -0.003090
O	      4.59583      5.76796      6.10938        -0.001126      0.000292      0.003390
O	      7.45904      5.74418      6.14523         0.000956      0.002286     -0.011149
O	      2.88069      8.31163      6.08162         0.005079      0.000693      0.003296
O	      6.21147      8.35064      6.21478        -0.000537      0.003690     -0.002214
