# total energy = -226.52549814 eV
 
CRYSTAL
PRIMVEC
5.963629 -0.004680 0.013818 
1.579831 7.653859 -0.002113 
1.475350 2.537242 7.271388 
PRIMCOORD
36 1
Li	      0.06727      0.05378      0.12888        -0.003746      0.011504     -0.003554
Li	      3.05134      5.13602      7.22703         0.003424      0.001540      0.003370
Li	      4.53509      7.67375      7.20625         0.003697     -0.013087     -0.000685
Li	      3.06833      8.31451      2.39535        -0.001201      0.003042      0.001523
Li	      1.72856      6.07206      2.40372         0.002145      0.006097      0.004274
Li	      4.36211      6.09074      2.38914         0.007191     -0.008127     -0.000220
Li	      4.56533      9.22170      4.80072         0.005005     -0.005116     -0.012267
Li	      5.89020      6.76951      4.84429        -0.000900      0.002785     -0.007418
Li	      3.27758      6.82201      4.75887         0.010420     -0.008639     -0.008504
Sc	      7.57487      9.27583      4.78738        -0.003799      0.019126     -0.011647
Ti	      6.13130      5.08945      0.02724         0.001721     -0.009901      0.002387
V	      1.57143      4.32425      4.90538         0.009484     -0.016222      0.011515
Cr	      4.44078      7.64346      0.00929        -0.004383      0.005495     -0.006576
Fe	      2.97880      3.41878      2.39071        -0.005430      0.005748      0.007766
Fe	      5.99937      8.33366      2.45981        -0.000408     -0.000919      0.001805
Co	      5.98860      3.35927      2.40729        -0.004341     -0.001877      0.005572
Cu	      4.44921      2.56579      0.00841        -0.003159     -0.003229      0.004927
Ni	      4.47998      4.32194      4.88357         0.002125     -0.016649      0.004155
O	      3.00137      1.70847      1.21796        -0.000920      0.002723     -0.003445
O	      5.77317      1.71680      1.27243         0.002950      0.003896      0.006894
O	      1.46173      4.27986      1.23182        -0.004243      0.007933     -0.007393
O	      4.47439      4.20923      1.20340         0.000685      0.008901     -0.000202
O	      5.91883      6.74480      1.11859         0.004378     -0.001473      0.000989
O	      3.09365      6.85774      1.09548        -0.005446      0.008751      0.004371
O	      1.57930      2.65259      3.71097        -0.006794     -0.004809      0.013745
O	      4.45274      2.57434      3.60553         0.008707     -0.002857      0.003383
O	      6.18774      4.93911      3.84311        -0.018097      0.015206     -0.001566
O	      2.96682      5.00684      3.65899        -0.001404      0.008935     -0.005233
O	      4.61243      7.66550      3.57900         0.003468     -0.006500      0.002977
O	      7.49337      7.70677      3.57563         0.000713     -0.011156     -0.013500
O	      5.96276      3.41024      6.07691        -0.003195      0.000332      0.009731
O	      2.90645      3.44405      6.01804        -0.004184      0.005736     -0.009057
O	      4.55025      5.89899      6.09064         0.005299      0.005720      0.005647
O	      7.44419      5.93573      6.18624        -0.000430      0.006079     -0.006919
O	      2.88962      8.35739      6.12545         0.003257     -0.008291      0.005667
O	      6.14847      8.53808      6.15577        -0.002590     -0.010697     -0.002513
