# total energy = -226.09237960 eV
 
CRYSTAL
PRIMVEC
5.978321 0.015381 -0.039263 
1.609541 7.633627 -0.065982 
1.423534 2.486340 7.215165 
PRIMCOORD
36 1
Li	      0.00852      0.06088      0.12268         0.011253      0.004849      0.006330
Li	      3.03056      5.09664      7.12708         0.022397      0.003923      0.001261
Li	      4.50243      7.57027      7.06351         0.009326      0.005220     -0.000610
Li	      3.07743      8.29949      2.36476        -0.016643      0.002762     -0.015468
Li	      1.69559      6.05926      2.35082         0.017649      0.003742     -0.007531
Li	      4.42806      6.05130      2.34232         0.021458      0.000078     -0.005273
Li	      4.56551      9.15881      4.65244        -0.016711     -0.010481      0.003882
Li	      5.88320      6.75941      4.70918        -0.008346      0.000232     -0.005993
Li	      3.27487      6.77967      4.63492        -0.005107      0.000854     -0.008121
Sc	      7.55225      9.23695      4.65156         0.007355     -0.005453     -0.018355
Ti	      6.21173      5.11664     -0.03955         0.009971      0.002454      0.003497
V	      1.52173      4.28823      4.83698         0.005024     -0.014193      0.000037
Cr	      6.02021      8.38333      2.32776         0.003917     -0.020182      0.004198
Fe	      2.96611      3.41225      2.32836        -0.009670      0.011668     -0.013548
Fe	      4.36931      7.59032     -0.03577         0.004000     -0.007326      0.016248
Co	      6.00180      3.37844      2.34215        -0.010216     -0.001441     -0.003740
Cu	      4.49486      2.57811     -0.04906        -0.001430     -0.013059      0.024854
Ni	      4.46123      4.26990      4.79398        -0.010956      0.000396      0.004330
O	      3.04122      1.69942      1.16284        -0.012443     -0.017509      0.009146
O	      5.82129      1.76927      1.26618        -0.006157      0.005803      0.009204
O	      1.54564      4.27976      1.13910        -0.008955     -0.000579     -0.000909
O	      4.57900      4.18221      1.21627        -0.013478     -0.001018      0.000591
O	      6.00022      6.75022      1.04893        -0.008218     -0.005705      0.004496
O	      3.08880      6.82947      1.04339         0.006437     -0.020272     -0.013457
O	      1.48271      2.63495      3.59424         0.003086      0.011521      0.011209
O	      4.36857      2.47915      3.54810         0.004283      0.004797     -0.010188
O	      6.13749      4.88595      3.67305        -0.009493      0.001370      0.008357
O	      2.93946      4.96717      3.59799        -0.004774      0.007016      0.016596
O	      4.61384      7.62437      3.46451        -0.001210      0.002889      0.006675
O	      7.48687      7.66815      3.45285        -0.003743      0.008445     -0.002396
O	      5.98770      3.40531      5.95341        -0.000745      0.010579     -0.018806
O	      2.86648      3.39287      5.91777        -0.004840      0.014861     -0.005742
O	      4.54775      5.85301      5.98691         0.005141      0.009086      0.015478
O	      7.43530      5.89361      6.04527         0.001801      0.004152      0.002782
O	      2.87816      8.31108      6.02567         0.001985      0.006753     -0.003774
O	      6.14731      8.47823      6.02972         0.018050     -0.006231     -0.015260
