# total energy = -101.54866598 eV
 
CRYSTAL
PRIMVEC
0.000022 2.104780 2.104722 
16.121928 0.000234 -0.000023 
0.000042 2.104778 -2.104720 
PRIMCOORD
16 1
Li	      0.16291      2.10476     -2.09994         0.025554      0.000206     -0.004095
Li	      1.84957      2.10680      0.00268        -0.025594     -0.005308     -0.001553
Li	      6.11790      2.10388     -0.00054        -0.022407      0.003242      0.002297
Li	     12.01633      2.10350     -2.10286         0.022287      0.002582      0.002619
Ti	      4.01572      2.10498     -2.10270        -0.205944      0.000392     -0.001273
Ti	     14.11865      2.10300      0.00547         0.206570      0.001384     -0.002267
Ni	      7.98106      0.00154     -0.00040        -0.064558     -0.001398      0.001943
Ni	     10.15296      2.10621      0.00049         0.066792     -0.000763      0.000582
O	     12.22614      2.10454      0.00281         0.230048      0.000831      0.000783
O	     14.10221      2.10362     -2.10028        -0.028157      0.000676      0.002050
O	      8.08650      2.10652     -0.00043        -0.077282     -0.003769      0.002511
O	     10.04752      0.00165      0.00039         0.079113     -0.002571      0.000632
O	      4.03226      2.10504      0.00176         0.023641      0.001063      0.000357
O	      5.90823      2.10523     -2.10410        -0.232126      0.000459      0.000733
O	     15.96072      2.10414      0.00401        -0.320146      0.002658     -0.003038
O	      2.17368      2.10507     -2.10213         0.322209      0.000316     -0.002282
