# total energy = -222.79118702 eV
 
CRYSTAL
PRIMVEC
6.065168 -0.164363 0.170783 
1.400197 7.592872 -0.085502 
1.620565 2.374012 7.217227 
PRIMCOORD
36 1
Li	      0.21552      0.01765      0.14153         0.011116      0.006872     -0.003435
Li	      1.45358      2.51652      0.00045        -0.009857     -0.001312      0.006737
Li	      4.57144      7.41281      7.14106        -0.002951      0.008371      0.007806
Li	      3.07591      8.20455      2.37545        -0.006569      0.000648      0.017662
Li	      1.52540      5.94154      2.37603        -0.004906     -0.007116     -0.005316
Li	      4.30965      5.91255      2.39882         0.000091     -0.013803     -0.007496
Li	      4.58592      8.98193      4.88271         0.008421     -0.009842      0.013989
Li	      5.93319      6.49171      4.79185         0.002976     -0.004155      0.008010
Li	      3.33758      6.62745      4.83544         0.009179     -0.002743      0.003841
Sc	      7.63047      8.97197      4.82712         0.012466     -0.001983     -0.005810
Ti	      6.13079      5.01401      0.20439         0.005295     -0.001283      0.027250
V	      1.62012      4.28918      4.73755         0.001434     -0.002533      0.011354
Cr	      4.43452      2.44504      0.08328        -0.000309     -0.006544     -0.007340
Fe	      5.97578      8.15268      2.50002         0.007189     -0.001382     -0.015795
Co	      6.03588      3.17001      2.49854         0.000811     -0.001627      0.004000
Cu	      2.98702      3.30109      2.38083         0.006701     -0.004143     -0.008802
Cu	      3.00793     -0.08162      0.11349        -0.000016     -0.005781     -0.001221
Ni	      4.51639      4.06622      4.87147         0.003037     -0.014648     -0.002712
O	      3.07648      1.50386      1.24948        -0.009530     -0.007068      0.003689
O	      5.84874      1.63481      1.32405        -0.006198      0.016333      0.006405
O	      1.22933      4.18001      1.11072        -0.009287     -0.008658     -0.001768
O	      4.59623      3.97411      1.39253        -0.001535      0.008132      0.005113
O	      6.10583      6.48715      1.31495         0.024813      0.003635     -0.001755
O	      3.07883      6.74499      1.04433        -0.012195     -0.002863     -0.001181
O	      1.43226      2.60939      3.39143         0.016085      0.002762     -0.005740
O	      4.74115      2.33952      3.68597         0.003194      0.004966     -0.001666
O	      6.21017      4.63493      3.79492        -0.016218      0.010335     -0.013957
O	      2.99616      4.89804      3.59022        -0.004894      0.012762     -0.007787
O	      4.57393      7.49143      3.60922         0.007527     -0.002093     -0.003491
O	      7.46565      7.43309      3.60852        -0.000461      0.004466      0.001930
O	      5.95621      3.16464      6.14657        -0.012770      0.004936     -0.003216
O	      2.73839      3.26808      5.74737        -0.013138     -0.004114     -0.002323
O	      4.63076      5.63621      6.14038         0.004042      0.011388     -0.005560
O	      7.48840      5.61704      6.12606         0.010712      0.002703     -0.010785
O	      2.90375      8.21804      6.00942        -0.004898      0.000065      0.003736
O	      6.18871      8.26616      6.22285        -0.019356      0.005316     -0.004367
