# total energy = -229.12627254 eV
 
CRYSTAL
PRIMVEC
5.872254 0.002403 -0.016501 
1.491788 7.804842 0.072304 
1.424538 2.785327 7.300880 
PRIMCOORD
36 1
Li	      5.92941      5.26578      0.11498        -0.002841      0.008378     -0.001625
Li	      5.90187      8.59499      2.52687         0.003290     -0.002603      0.000897
Li	      2.89832      8.57630      2.54429        -0.003247     -0.004822     -0.001302
Li	      5.87109      3.69866      2.44918         0.001934     -0.007582     -0.003576
Li	      4.44792      6.29490      2.64267        -0.007882      0.001207      0.009073
Li	      4.42168      4.57940      4.75091         0.003258      0.007502     -0.004306
Li	      5.84297      7.09730      4.77561        -0.001073     -0.007936     -0.001787
Li	      2.98204      7.07855      4.80372        -0.001761      0.004273      0.015904
Li	      2.87471      5.24403      0.15341         0.008094     -0.001872      0.002245
Sc	      7.30143      4.54702      4.78386        -0.011867      0.010000      0.019644
Ti	      4.38621      2.71082      0.02705         0.015965      0.004738     -0.014783
Mn	      7.30525      9.61626      4.89374        -0.005102      0.019077      0.012912
V	      2.94998      3.50519      2.42595        -0.000259      0.000051      0.000722
Cr	      1.47269      2.53760      0.03220         0.005995     -0.008307     -0.005067
Fe	      4.41402      9.47383      4.88354        -0.002635     -0.000940     -0.001957
Co	      5.84669     -0.00779     -0.01437         0.005781     -0.004167     -0.010478
Cu	      7.33151      6.22965      2.45035        -0.006124     -0.005461      0.006357
Ni	      4.42092      7.74284      0.13238        -0.002083      0.003086     -0.009723
	      2.98164      1.79283      1.16425        -0.012219      0.006564      0.000701
	      5.83003      1.65028      1.01104         0.014196      0.006439     -0.001232
	      1.53267      4.10431      1.22965         0.001666     -0.001248      0.009070
	      4.39282      4.16689      1.19023        -0.014752     -0.007144      0.002231
	      5.99987      7.00629      1.19638         0.001533     -0.004197     -0.002505
	      2.80851      6.99021      1.19797        -0.004823      0.006043     -0.000772
	      1.44558      2.70453      3.75762         0.002761     -0.007291     -0.009634
	      4.35724      2.71062      3.76782         0.007095      0.001162     -0.008747
	      5.92498      5.36981      3.61162         0.005600      0.001837     -0.005544
	      2.90549      5.23785      3.55622         0.004850     -0.006117     -0.013156
	      4.38274      7.96855      3.78234        -0.000002      0.003213     -0.001593
	      7.34457      8.08824      3.85859         0.008184     -0.008274     -0.007469
	      5.88334      3.59317      6.13039        -0.014237     -0.008975     -0.003212
	      2.82798      3.59046      6.20612         0.006331      0.017770      0.016322
	      4.41065      6.06279      6.19404        -0.005753      0.003776      0.005427
	      7.28318      6.11216      6.19180        -0.004677     -0.011364      0.001440
	      2.86036      9.03387      6.13886        -0.007693     -0.006572     -0.001474
	      5.94244      8.95539      6.07620         0.012497     -0.000244      0.006999
