# total energy = -229.33140194 eV
 
CRYSTAL
PRIMVEC
5.959310 0.021458 -0.038651 
1.563921 7.654413 -0.013109 
1.384833 2.523722 7.265023 
PRIMCOORD
36 1
Li	      1.59846      2.55118     -0.02647         0.003761     -0.001164      0.000146
Li	      2.93996      5.11410     -0.02696         0.000987     -0.003864      0.002343
Li	      1.47566      0.90364      2.34429         0.002278     -0.001866     -0.002840
Li	      2.87499      3.30995      2.35022         0.001119     -0.000532      0.005456
Li	      6.06809      3.35671      2.35896         0.006592      0.000026      0.001957
Li	      5.92025      1.82169      4.87311         0.003830      0.002723     -0.013875
Li	      1.47867      4.17850      4.94230         0.003870     -0.012375      0.006466
Li	      2.94843      6.68973      4.90128        -0.003318      0.005669     -0.005939
Li	      4.43079      2.70670      7.15867        -0.001285     -0.001012     -0.000370
Sc	      5.93444      6.75298      4.88084        -0.007618     -0.009673      0.013029
Ti	      4.33644      5.87055      2.29785        -0.016220      0.004853     -0.008292
Mn	      7.43200      5.89879      2.41303         0.011572     -0.004829     -0.021428
V	      2.83299      1.76778      4.80376        -0.009166      0.003447      0.000156
Cr	      7.41251      7.71554      7.20361        -0.006290     -0.011905     -0.011782
Fe	      4.42348      0.96638      2.34176        -0.006680     -0.014684      0.006271
Co	      4.46770      4.17023      4.81752        -0.003336      0.003792      0.007544
Cu	      1.40177      2.60283      7.24734         0.020093      0.008572      0.008181
Ni	      4.48480      2.56931     -0.00949        -0.005487      0.001694      0.001938
	      3.05150      1.72042      1.22726        -0.003339      0.001680     -0.003659
	      5.89206      1.62233      1.18577         0.005863     -0.006108     -0.005733
	      1.42572      4.40849      1.23742         0.001938      0.009304      0.006437
	      4.54874      4.41121      1.12958        -0.004372     -0.002933     -0.002494
	      5.80768      6.75366      1.27133        -0.006701     -0.008398     -0.001400
	      2.94208      6.72193      1.34524         0.002803     -0.008432      0.003136
	      1.57573      2.42394      3.74652        -0.002784      0.005341      0.006050
	      4.36308      2.48623      3.73043         0.018723      0.000799      0.009903
	      5.87635      5.08944      3.54275        -0.004917     -0.000826     -0.000669
	      3.16016      5.05505      3.57318        -0.007986      0.002935     -0.003246
	      4.52290      7.66455      3.58175         0.008292     -0.015396     -0.010258
	      7.35388      7.49509      3.48775         0.001719      0.017111      0.019190
	      5.91704      3.49354      5.97021        -0.001046     -0.001156     -0.007500
	      3.07859      3.36537      5.85714         0.003529      0.013858      0.008632
	      4.43765      5.77296      5.91990         0.005941      0.012983     -0.005559
	      7.43021      6.06883      6.10564        -0.015772      0.017778     -0.001823
	      2.96355      8.63819      6.12320        -0.000239     -0.014306      0.005060
	      5.86535      8.48092      5.99068         0.003647      0.006892     -0.005026
