# total energy = -227.98951195 eV
 
CRYSTAL
PRIMVEC
6.115445 -0.048925 0.093139 
1.379123 7.653804 -0.076525 
1.733049 2.306294 7.298734 
PRIMCOORD
36 1
Li	      3.16525      0.05622      0.25390        -0.003995      0.006796      0.000751
Li	      4.54126      0.85210      2.29072        -0.001502     -0.003536      0.001480
Li	      1.55209      0.82683      2.23581         0.010310     -0.006584     -0.003380
Li	      6.14728      5.14560      0.09745        -0.005773      0.001061      0.001318
Li	      1.42237      6.05378      2.18331        -0.001892      0.003529      0.003004
Li	      4.45499      2.41917      0.13654         0.001534     -0.003675      0.001511
Li	      1.60915      2.41896      0.21822        -0.006490     -0.002453     -0.001851
Li	      1.64040      3.98918      4.94096         0.005448      0.005164      0.001488
Li	      7.36370      7.62455      0.13560        -0.010805      0.004442     -0.009074
Sc	      4.64883      4.05672      4.97138         0.004107      0.001144     -0.001812
Ti	      6.37489      6.50219      4.86156         0.005618     -0.004349      0.012862
Mn	      6.21956      1.51013      4.91210        -0.002399     -0.001784     -0.004942
V	      3.12772      1.50292      4.91702         0.000538     -0.004639     -0.002354
Cr	      2.98485      5.06820      0.02645        -0.001142     -0.002544     -0.010815
Fe	      4.53671      6.02503      2.31395        -0.005887     -0.000413      0.009896
Co	      6.10829      3.41712      2.14965         0.001653     -0.007320     -0.016742
Cu	      3.08476      6.56838      4.82698         0.001846     -0.003004     -0.000295
Ni	      3.01034      3.27178      2.40416        -0.000359     -0.000417     -0.003899
	      6.06535      8.22308      5.91524         0.000374     -0.004050      0.003002
	      3.27322      8.18454      6.06989        -0.005426     -0.006078      0.004285
	      7.45057      7.56329      3.72552         0.006952     -0.002212      0.001374
	      4.60117      7.44604      3.81400         0.006427     -0.002416      0.001454
	      3.03226      6.65377      1.20084        -0.003575     -0.000181     -0.000715
	      5.96454      6.73012      1.26977        -0.000190     -0.003081      0.000887
	      7.67463      5.78850      5.93728        -0.000843      0.011697     -0.002263
	      4.92574      5.75531      6.10519         0.006929     -0.000605      0.007593
	      3.25151      4.96124      3.68410         0.006069     -0.005709      0.003295
	      6.09220      4.96023      3.63374        -0.005024     -0.001049      0.000857
	      4.50092      4.26718      1.25038         0.001754      0.010103     -0.005744
	      1.55568      4.22797      1.19944         0.001565      0.002110      0.003374
	      3.17087      2.99089      5.99623        -0.012498      0.008869      0.005945
	      6.20099      3.05389      5.99678        -0.003145      0.007774     -0.000356
	      4.51784      2.36125      3.74708         0.006251      0.000512     -0.001067
	      1.68289      2.21059      3.82391         0.000306     -0.000193      0.002347
	      6.09886      1.83825      1.37691        -0.003560      0.002220     -0.001303
	      3.03031      1.67410      1.26446         0.006824      0.000873     -0.000112
