# total energy = -39.04162237 eV
 
CRYSTAL
PRIMVEC
4.394045 -0.000049 -0.000325 
0.000325 -0.000166 -4.391699 
2.197130 4.489113 -2.195832 
PRIMCOORD
6 1
Mn	      0.10945      0.22248     -0.11036         0.199695     -0.997610     -0.039151
Mn	      2.30709      2.35349     -4.61186        -0.104623      0.333015     -0.095874
O	      2.30830      2.53977     -2.30624         0.070455      1.474351     -0.127105
O	      2.30782      0.18301     -0.22016         0.149790      1.880436      0.071379
O	      4.61499      2.16999     -4.61245        -0.339118     -1.121339      0.205332
O	      0.11167      0.03785     -2.41593         0.023800     -1.568852     -0.014581
