# total energy = -79.59226706 eV
 
CRYSTAL
PRIMVEC
0.000004 2.091474 2.090190 
4.290665 0.000008 0.000005 
-0.000009 8.708994 -8.705753 
PRIMCOORD
12 1
Mn	      4.29002      8.65758     -8.65148         0.002080     -0.819330      0.823260
Mn	      2.14505      2.15254     -0.06207        -0.001415      0.724000     -0.710960
Mn	      2.14476      4.29433     -2.20207        -0.000381     -0.732700      0.731568
Mn	      4.29003      4.41180     -4.40602        -0.000203      0.810476     -0.803407
O	      4.28982      6.33491     -4.23347         0.000874     -1.119871      1.014516
O	      2.14419      6.53516     -6.52822        -0.000568      0.001169     -0.001359
O	      4.28996      4.41124     -2.32226         0.000406      1.067486     -1.042393
O	      2.14465      4.21641     -4.21249         0.000323     -0.672043      0.683253
O	      4.29031      2.03433      0.05631        -0.001230     -1.040342      1.053995
O	      2.14492      4.26863     -0.09136        -0.000674     -0.002872     -0.005681
O	      4.29008      8.83068     -6.73015        -0.000203      1.085936     -1.027438
O	      2.14489      0.13880     -0.13505         0.000991      0.698091     -0.715354
