# total energy = -58.59142929 eV
 
CRYSTAL
PRIMVEC
-0.000010 2.158161 2.160404 
12.119656 -0.000426 0.000282 
-0.000140 2.158111 -2.160355 
PRIMCOORD
9 1
Mn	     11.98890      4.31498     -0.00020        -1.154280      0.000025     -0.000960
Mn	      2.18591      2.15676     -0.00064         1.522252      0.002315      0.000187
Mn	      6.10071      2.15839     -0.00062        -0.466517     -0.000056     -0.000334
O	      7.91791      2.15880     -0.00085        -0.645875     -0.001484      0.000599
O	     10.20131      2.15833      2.15979         0.822511     -0.002523      0.000953
O	      4.07681      2.15593     -0.00066        -0.025557      0.002951      0.000780
O	      6.05337      2.15809      2.15981         0.123765     -0.000502     -0.000683
O	      0.15250      2.15706     -0.00060         0.398679     -0.000126      0.000192
O	      1.95405      4.31466     -0.00056        -0.574977     -0.000600     -0.000734
