# total energy = -50.44448261 eV
 
CRYSTAL
PRIMVEC
2.035078 4.085779 2.035691 
2.035828 -4.085968 2.035292 
4.091443 -0.000545 -4.091514 
PRIMCOORD
12 1
Ni	      6.11154      0.00063      2.01776         0.074317      0.003587      0.079346
Ni	      4.12945      2.04563     -2.07628         0.321929      0.023200     -0.337518
Ni	      2.01737     -2.04390      0.03612        -0.331974     -0.032032      0.335706
Ni	      4.07573      0.00104     -0.01763        -0.005419     -0.003061     -0.011626
O	      3.97466     -2.02318     -0.00460        -0.274230      0.069521      0.035518
O	      2.07523     -0.12920     -0.13983         0.796898     -0.390924     -0.203059
O	      4.08890      2.02493     -0.11910         0.037937     -0.071358     -0.273071
O	      6.12788     -1.99195     -1.96249         0.017464     -0.024511      0.200588
O	      4.19967      0.12715      1.98345         0.076756      0.289399     -0.710193
O	      3.95347      0.13095     -2.01842        -0.207149      0.389271      0.794521
O	      2.13105      1.99345      2.03455         0.201474      0.034682      0.012940
O	      6.07737     -0.12572      0.10626        -0.708002     -0.287775      0.076848
