# total energy = -163.86255407 eV
 
CRYSTAL
PRIMVEC
-0.011726 8.385865 8.365250 
6.279055 4.171713 10.469397 
6.271748 2.073281 4.197232 
PRIMCOORD
19 1
Ti	      6.17726     10.43696     12.58025         1.435163      1.800667      3.263677
Ti	      4.20638      8.41068     12.51314         0.570214     -0.735524     -2.343104
Ti	      6.33308      6.30934     12.57748        -2.510045     -3.284885     -0.985759
Ti	      2.12775      2.11514      4.11215        -0.733445      0.810606      2.693802
Ti	      2.15889      4.25297      6.34645        -1.542757     -1.362128     -3.434966
Ti	     10.37366      6.29723     12.55604         2.660182     -1.911169     -0.167301
Ti	      8.36816      8.17287     12.62062         0.700567      4.392563      1.731679
O	      8.35032      6.01616     12.55425         0.235712      1.800094     -0.086755
O	      4.17016      2.15168      4.19987        -0.408171     -1.596431     -1.247906
O	      6.23803     10.53078     14.55358         0.034682      2.373830     -2.784427
O	      8.38100      8.33016     14.69475         0.097861     -2.233098     -0.654207
O	      4.23121      4.18575      6.26418        -0.437200      1.599633      1.379314
O	      6.25837      4.17443      8.39812         0.192829      0.189861     -0.458430
O	      8.34955     10.47529     16.78393         1.456915     -0.552987      1.186610
O	      4.15699      6.30249      8.32643        -2.145630     -2.380042     -1.430301
O	      6.34131      6.23279     10.50999         1.803263     -1.335480      1.810142
O	      8.29034     12.55764     18.77426        -0.975835      0.155094     -1.413734
O	      4.19968      8.44237     10.54699        -0.280652      2.617302      3.149809
O	      6.29064      8.38867     12.60104        -0.153652     -0.347907     -0.208143
