# total energy = -137.91806840 eV
 
CRYSTAL
PRIMVEC
0.064072 10.470071 10.415890 
4.225304 2.098706 6.270041 
4.251364 8.389098 8.345216 
PRIMCOORD
16 1
Ti	      4.23443      8.38269      8.44650        -0.623177      2.105459     -4.599254
Ti	      6.35996     18.81512     20.82544         1.789237     -0.814585      3.658151
Ti	      4.25418     10.42967     10.38438        -1.292853      2.186984     -2.999404
Ti	      2.16893      2.08908      4.14715         0.474838     -3.120979      4.324955
Ti	      8.44015     14.78848     18.83244         1.369475     -1.913567      1.655899
Ti	      2.26651      8.33400     10.33754        -1.732236      0.675319     -2.056467
O	      6.37895     14.62145     18.66494         0.114295      0.321248      1.544177
O	      4.25184     12.59600     14.63679        -1.950574      0.123565     -1.082551
O	      2.07786      4.18246      4.16491        -1.084964      0.549318     -1.653908
O	      4.29068     14.58680     16.73163         0.136923     -2.760835      3.425163
O	      6.36508      8.50207     12.45250        -0.084329      2.787494     -2.961290
O	      4.32348      6.23958      8.35854         0.962179      0.306390      1.608127
O	      6.41281     10.44873     14.57053         1.600280      0.003201      0.799305
O	      4.27081      8.43166     10.64350         0.131963     -0.135493     -1.761999
O	      6.39733     12.54800     16.64658         0.198342     -1.489017      1.772280
O	      4.23778     10.56353     12.50506        -0.009399      1.175499     -1.673185
