# total energy = -104.38902767 eV
 
CRYSTAL
PRIMVEC
2.119725 4.014910 2.043260 
4.254920 -1.987103 -2.098902 
0.043509 4.036661 -4.172008 
PRIMCOORD
12 1
Ti	      4.31439      3.96038     -0.06962        -3.157212      0.363687      0.679667
Ti	      6.35592      3.95786     -2.04597         2.951300     -1.181722     -0.470530
Ti	      4.17762      6.11637     -2.11101        -0.515157      1.148917      0.861733
Ti	      4.37670      4.03560     -4.28800         1.170367     -1.174949     -1.369609
O	      1.97695      2.00702     -2.13512        -0.593948     -1.066461     -1.627058
O	      4.35309      4.09834     -2.13893         1.076025      0.297580      0.013761
O	      2.34714      4.02121     -4.24722         0.699309     -1.077372     -1.678551
O	      4.13796      2.00942      0.05046         0.471185      0.044354      1.071726
O	      4.23307      0.03240     -2.09599        -1.547795     -0.025535      0.318588
O	      2.34638      4.09839     -0.11787         1.166190      1.433141      0.656705
O	      4.10715      2.07044     -4.18347        -0.953137      0.687487      0.194803
O	      2.14778      5.98114     -2.07374        -0.767126      0.550872      1.348766
