# total energy = -99.32516834 eV
 
CRYSTAL
PRIMVEC
2.098090 4.259137 2.146648 
4.262148 -2.148236 -2.174463 
0.003230 4.267331 -4.311705 
PRIMCOORD
12 1
Ti	      2.25798      0.12224     -2.16878        -0.588147      0.818292     -1.506708
Ti	      2.15949      4.37947     -2.25533        -1.631542     -0.635629      4.568537
Ti	      2.26025      2.31962     -4.38930        -0.243702     -1.753299     -0.180803
Ti	      4.39602      4.39132     -4.44041         2.975067      1.643201     -2.938390
O	      2.17888      2.19063     -2.26081         0.489851      0.472809     -2.832917
O	      4.40141      4.33466     -2.22149        -2.592330      2.343086     -0.213432
O	      2.15421      4.43589     -4.47468         2.219457     -2.653635      0.616993
O	      4.37357      2.18496      0.00517        -0.422802     -0.316213      2.559628
O	      4.31542     -0.01487     -2.13436        -2.967568      0.703519      3.567701
O	      2.23712      4.39072     -0.12068         2.824321     -0.293016     -3.988555
O	      4.36584      2.19816     -4.45116        -0.004976      2.659006      0.520906
O	      2.18996      6.57275     -2.24483        -0.057629     -2.988120     -0.172960
