# total energy = -99.93094827 eV
 
CRYSTAL
PRIMVEC
2.119323 4.331125 2.149881 
4.294425 -2.192950 -2.150873 
-0.016932 4.329173 -4.279413 
PRIMCOORD
12 1
Ti	      4.40389      2.22652     -2.19859         1.083746     -0.010979      1.609563
Ti	      0.04466      2.25717     -2.21959         1.950292     -2.440038      0.625564
Ti	      2.23240      2.35938     -4.35539        -1.669097      3.280172     -0.874263
Ti	      4.43778      4.45214     -4.45321        -0.628307      0.587294     -1.818392
O	      2.22276      2.21532     -2.19917         0.488304      0.323102     -3.001657
O	      4.39466      4.46316     -2.17155         2.029851     -0.744934     -2.095108
O	      2.29441      4.33902     -4.42662         2.983670     -3.845569      0.375244
O	      4.40279      2.17641      0.01003        -0.294385     -2.645914     -0.920951
O	      4.45593      0.02092     -2.23236        -0.212281      3.526327      0.643686
O	      2.10226      4.60852      0.00087        -3.259029      2.495147     -0.517856
O	      4.44649      2.21514     -4.47979        -2.399801      0.273312      3.219609
O	      2.17372      6.73229     -2.22616        -0.072962     -0.797921      2.754561
