# total energy = -99.29538365 eV
 
CRYSTAL
PRIMVEC
2.150304 4.246191 2.150547 
4.250501 -4.218808 -0.004534 
4.254933 -0.000072 -4.255231 
PRIMCOORD
12 1
Ti	      2.35040      0.00185     -2.14138        -3.076609     -0.044767      1.292791
Ti	      4.49354      2.07216     -2.18662         1.675113      1.043159     -2.200032
Ti	      4.39114      0.02525      0.02647         1.621579     -1.355145      1.304459
Ti	      6.53113      0.00556     -2.19483        -0.436321      0.863967     -0.101116
O	      4.35854     -2.07138      0.07107         0.219802      3.612087      2.724782
O	      6.57291      0.02223     -0.01137        -0.378910      0.019103     -3.026689
O	      2.20810      0.00843     -0.01518         3.189316      0.013399      0.095598
O	      4.36707      2.18149     -0.00368         0.411591      0.030901     -2.244095
O	      6.56152     -2.15051     -2.17080         2.001270     -0.342209      0.132249
O	      8.76427      0.06480     -2.15616        -2.689332     -1.948230     -0.399898
O	      4.35196     -0.03352     -2.20664         0.564327      1.861498      2.335082
O	      6.48706      2.10243     -2.16216        -3.101827     -3.753761      0.086870
