# total energy = -160.51706063 eV
 
CRYSTAL
PRIMVEC
0.066685 4.168172 4.128029 
14.909004 0.163117 14.517912 
6.423263 4.224963 6.235300 
PRIMCOORD
20 1
Ti	      8.48725      4.18124      8.38644         2.464480      0.488458      0.769478
Ti	      8.56103      4.33253     12.32745         0.921481     -0.796913     -0.584447
Ti	     19.19312      4.29631     18.75139         0.106467      0.007990      0.320957
Ti	      6.47851      6.23850      8.39357        -0.920026      0.794872      0.585863
Ti	      6.48653      2.22154      8.20615        -2.474543     -0.481012     -0.771085
Ti	     10.68916      2.26929     12.35878        -0.106475     -0.014949     -0.326649
O	     17.00645      2.22120     16.55180        -1.888297     -2.001650     -0.717232
O	      4.44221      6.37033      8.26659         1.368508      0.928032      0.397079
O	      6.49950      6.33184     10.35451         0.073537     -0.108293      0.085448
O	      8.62868      6.31848     12.43146        -2.439982      0.645696     -0.114160
O	     10.82895      6.33872     14.57331         1.632523      0.388914      0.964093
O	     12.79803      6.33101     16.50800        -1.277063     -1.019612     -1.537357
O	     15.08334      6.46427     18.70236         1.166527      1.481544      1.350415
O	     17.15086      4.40270     18.73077         1.279861      1.019155      1.536300
O	      4.21163      4.23204      6.14728        -1.628909     -0.387727     -0.959677
O	      6.41211      4.25294      8.29011         2.437414     -0.656951      0.108908
O	      8.54072      4.23923     10.36612        -0.073398      0.109948     -0.077924
O	     10.59805      4.20032     12.45384        -1.368247     -0.923292     -0.392428
O	     12.87607      4.34439     14.55920         1.893109      2.003428      0.715042
O	     14.86588      4.26878     16.53633        -1.166966     -1.477639     -1.352625
