# total energy = -628.16208317 eV
 
CRYSTAL
PRIMVEC
12.183255 -0.002035 0.022333 
0.001376 7.947677 0.015200 
4.074769 3.956573 8.812656 
PRIMCOORD
72 1
Ti	      2.00698      1.94189      2.20514         0.508416      0.956493      1.895611
Ti	      4.07943      3.96557      6.53881        -0.605092      0.002214      2.554334
Ti	      2.00819      6.00340      2.21321         0.509035     -0.958538      1.892645
Ti	      4.07905      7.93960      6.57649        -0.468495     -0.006270      2.957236
Ti	      5.99135      1.94905      2.18275         2.592190      0.772769     -2.140331
Ti	      7.98714      3.96125      6.61360         4.279091      0.004422     -2.105884
Ti	      5.99221      5.99043      2.19053         2.596152     -0.766267     -2.143458
Ti	      7.98205      7.93490      6.63630         4.303991      0.003682     -1.930971
Ti	     10.26601      1.98696      2.26608        -3.220222     -0.137705     -0.351199
Ti	     12.30180      3.96066      6.65937        -3.664316      0.003189     -0.228267
Ti	     10.26732      5.95147      2.27340        -3.219989      0.137144     -0.343822
Ti	     12.30383      7.93451      6.66433        -3.866514      0.000759     -0.233360
Ti	      0.06973      1.98500      0.04094        -2.540549     -0.025543     -0.182127
Ti	      2.12308      3.96596      4.52948        -2.547404      0.003476     -2.113859
Ti	      0.07078      5.96878      0.04848        -2.538676      0.035969     -0.175982
Ti	      2.14810      7.94031      4.55423        -3.089594     -0.000281     -1.214612
Ti	      7.95142      5.92735      8.75958         3.948115      0.507667      0.094139
Ti	      5.99267      3.96599      4.50791         3.459438      0.007204     -4.113603
Ti	      7.95214      9.93560      8.76697         3.950870     -0.512965      0.093670
Ti	      5.95998      7.93991      4.51034         4.168208      0.001645     -3.174409
Ti	     12.26220      5.94273      8.78566        -1.704557      0.061070      2.649167
Ti	     10.20923      3.96504      4.40418        -0.964136     -0.000616      2.620944
Ti	     12.26306      9.91860      8.79309        -1.706843     -0.071554      2.653381
Ti	     10.20767      7.93908      4.42048        -1.100006     -0.009585      2.541609
O	      2.01712      1.98105      0.18671        -0.821199     -0.093614      1.092324
O	      4.07006      3.96613      4.50263        -0.491913     -0.004572      2.543090
O	      2.01809      5.96798      0.19487        -0.826565      0.098801      1.086775
O	      4.06746      7.93982      4.55909        -0.588834      0.003324      1.885697
O	      6.14000      1.98304      0.17053        -0.527617     -0.099710      1.626851
O	      8.16268      3.96559      4.55596        -1.299061     -0.005906      2.360409
O	      6.14076      5.96568      0.17807        -0.524624      0.087586      1.625448
O	      8.17044      7.93934      4.58267        -1.265597     -0.005067      2.239792
O	     10.13724      1.98483      0.23616         1.825535      0.006516      1.013494
O	     12.16938      3.96445      4.62855         1.653041     -0.000352      1.202286
O	     10.13802      5.96215      0.24381         1.824722     -0.009280      1.011544
O	     12.16557      7.93816      4.64419         1.767663      0.000165      1.196027
O	      4.07924      2.04039      1.95861        -1.975696     -0.531173     -0.982808
O	      6.09678      3.96257      6.47397        -1.713035      0.004230     -0.942723
O	      4.08016      5.90195      1.96606        -1.979488      0.537858     -0.978849
O	      6.09543      7.93654      6.47936        -1.866660      0.005289     -1.042600
O	      8.11320      1.98451      2.05179         0.375932     -0.010716     -1.565927
O	     10.17098      3.96150      6.48342         0.016864      0.005082     -1.835973
O	      8.11367      5.95603      2.05941         0.373117      0.019652     -1.568025
O	     10.17028      7.93530      6.49670         0.119648      0.004287     -1.786880
O	     12.18101      1.98143      2.14463         1.505066     -0.041464     -1.979715
O	     14.21305      3.96093      6.59280         1.965902      0.003635     -2.302912
O	     12.18218      5.95773      2.15191         1.503767      0.047499     -1.977343
O	     14.21768      7.93479      6.61071         2.015232      0.005521     -2.446568
O	      4.02899      3.95904      8.62857         0.662828      0.000853     -1.074180
O	      1.99354      1.97595      4.24188         0.651996     -0.233154     -0.763815
O	      4.03339      7.93270      8.64812         0.640225      0.002602     -1.262488
O	      1.99459      5.95810      4.24901         0.649543      0.243379     -0.764197
O	      8.20569      3.95774      8.61004        -1.293978      0.002141     -0.881623
O	      6.16506      1.97597      4.16396        -1.063249     -0.194452      0.529546
O	      8.20299      7.93161      8.63287        -1.327614     -0.001706     -1.278413
O	      6.16577      5.95691      4.17181        -1.063733      0.194075      0.531403
O	     12.21447      3.95687      8.75185         0.443335      0.007288     -2.528754
O	     10.16981      1.97707      4.35848         0.345446      0.148453     -2.488761
O	     12.21132      7.93068      8.75694         0.471908      0.007926     -2.488332
O	     10.17073      5.95388      4.36555         0.343924     -0.133371     -2.486254
O	      2.09638      3.97033      2.49241        -0.334474     -0.013610      0.700341
O	      4.07599      5.94713      6.88327         0.210866      0.041888      0.014030
O	      2.05450      7.94498      2.50184         0.144832     -0.012794      0.364642
O	      4.07676      9.92627      6.89103         0.211808     -0.077934      0.011480
O	      6.07846      3.97038      2.36649        -0.477147     -0.007674      2.193158
O	      8.18653      5.94866      6.72309        -1.283977     -0.101531      2.142776
O	      6.12898      7.94400      2.37358        -0.954514     -0.002376      1.975111
O	      8.18715      9.92192      6.73084        -1.283626      0.099002      2.142128
O	     10.07482      3.96973      2.35383         1.026844     -0.006237      1.628010
O	     12.12731      5.94954      6.74101         1.061487     -0.062336      1.654614
O	     10.07750      7.94306      2.37804         1.010472      0.003959      1.499553
O	     12.12799      9.91949      6.74848         1.061485      0.059640      1.655761
