# total energy = -386.95906289 eV
 
CRYSTAL
PRIMVEC
0.001873 4.045981 4.061568 
16.835316 4.045300 -4.054288 
-0.053659 8.183640 -8.214970 
PRIMCOORD
92 1
Ni	      0.01109      1.99656     -1.99817         0.240356     -0.442311      0.499497
Ni	     16.76017     14.21945     -6.15255         0.378435     -0.420640      0.475171
Ni	      8.38202      8.08615      0.00036         0.216776     -0.528055      0.505095
Ni	      8.41542      8.10996     -8.13688        -0.087992     -0.622964      0.516994
Ni	      0.03155      4.02817      0.04286         0.084427     -0.525092      0.498825
Ni	     16.77267     12.17812     -8.17159         0.356747     -0.507721      0.483274
Ni	      8.37502      6.07517     -2.04926         0.261195     -0.419180      0.424942
Ni	      8.41697     10.13745     -6.08998        -0.022879     -0.765820      0.958596
Ni	      2.06449      4.06503     -2.05692         0.176822      0.178755     -0.095677
Ni	      2.09519      8.16795     -6.17127         0.036339     -0.034220      0.227065
Ni	     10.54112      6.09928     -4.08846        -0.004094     -0.135128     -0.071233
Ni	     10.46084     10.19276     -8.17395        -0.028084     -0.028125      0.111128
Ni	      2.07436      6.08613     -0.01861         0.163807      0.126814     -0.211738
Ni	      2.09606     10.19524     -4.13459         0.014717     -0.212506      0.056972
Ni	     10.54124      8.12528     -2.05496         0.202004     -0.031279      0.399560
Ni	     10.46752     12.18767     -6.16483         0.020592      0.029640     -0.092078
Ni	      4.12772      8.12483     -0.05652        -0.510218      0.119226     -0.204805
Ni	      4.19422      8.16669     -8.18254         0.010819     -0.216821      0.207343
Ni	     12.64116      6.09739     -6.09983        -0.094661     -0.196483      0.138236
Ni	     12.51912     14.23632     -6.18442        -0.298459      0.010996     -0.097781
Ni	      4.14917      6.09870     -2.06456        -0.593079      0.001933      0.011727
Ni	      4.18141     10.19620     -6.16175        -0.345905     -0.100553      0.104599
Ni	     12.62863      8.12682     -4.08050         0.165336     -0.178924      0.207325
Ni	     12.53851     12.22554     -8.20886        -0.539367      0.083840      0.005384
Ni	      6.25205      5.94810     -3.95288        -0.039768      0.301917     -0.301051
Ni	      6.24473     10.26914     -8.26972         0.242603      0.880892     -0.577979
Ni	     14.69057      8.20278     -6.18656         0.325181      0.679132     -0.709509
Ni	     14.64031     12.07402    -10.08410        -0.116193      0.424293     -0.339496
Ni	      6.27302      7.97874     -1.91492        -0.124975      0.373177     -0.289699
Ni	      6.24025     12.29687     -6.23245         0.273907      0.611500     -0.882363
Ni	     14.68161     10.22839     -4.15239         0.374641      0.736053     -0.638790
Ni	     14.66340     14.09460     -8.06105        -0.125907      0.276139     -0.399620
O	      3.95916      4.09039     -2.20632        -0.614588      0.884027     -0.381603
O	      4.28687      8.17273     -6.24958        -1.256981      1.328130     -0.872973
O	     12.73520      6.09240     -4.16828        -1.156841      1.340980     -0.887000
O	     12.35332     10.30128     -8.22999        -0.398444      0.414370     -1.141701
O	      3.94992      6.18215     -0.04585        -0.488638      0.447783     -0.879913
O	      4.28669     10.27209     -4.13313        -1.150195      0.894939     -1.475882
O	     12.73212      8.20667     -2.04495        -1.335035      0.939176     -1.339517
O	     12.34478     12.22730     -6.26362        -0.463539      1.066736     -0.464783
O	      6.24244      8.06702      0.01632         0.242195      0.772032     -0.730236
O	      6.34607      8.34959     -8.36630        -0.253394      0.237137     -0.294706
O	     14.78631      6.28069     -6.28436         0.416547      0.384834     -0.440134
O	     14.60875     14.19391     -6.13109        -0.136359      0.678633     -0.709582
O	      6.22262      6.04993     -2.02448         0.027431      0.704231     -0.775424
O	      6.29965     10.37247     -6.34240        -0.008955      0.425426     -0.385606
O	     14.74947      8.30583     -4.25992        -0.039765      0.271787     -0.270881
O	     14.63517     12.16299     -8.15488         0.284423      0.755905     -0.727988
O	      4.29887      6.06795     -4.13965         1.065429     -0.898908      1.185154
O	      4.17859     10.08046     -8.16696         0.795550     -0.611910      1.342839
O	     12.62379      8.01209     -6.08617         0.662212     -0.664415      1.221026
O	     12.68277     12.25660    -10.18981         0.955228     -1.284855      0.892319
O	      4.32146      8.15935     -2.01548         0.882242     -1.142893      0.823408
O	      4.19258     12.19327     -6.02328         0.708270     -1.220863      0.529909
O	     12.64006     10.12660     -3.94083         0.604810     -1.120528      0.471214
O	     12.71531     14.18808     -8.25594         0.846477     -0.841027      1.314602
O	      6.38658      1.95357     -1.94968        -0.138681     -0.419508      0.505458
O	     14.74926      8.06772     -8.08095        -0.116388     -0.519964      0.580665
O	      6.28034      3.97705      0.08624         0.008346     -0.658496      0.663105
O	     14.70250     10.09667     -6.04927        -0.041726     -0.500419      0.498514
O	     16.69425      6.15068     -4.02715         0.033982      0.961792     -0.829536
O	      0.01416      6.16091     -4.25297         0.003954      0.521140      0.076683
O	      8.46409      4.17096     -2.08440         0.021790     -0.129544     -0.553212
O	      8.25063      8.20845     -6.11744         0.025568      0.362224     -0.866556
O	     16.65320      8.07723     -2.08698         0.064270      0.826661     -1.016105
O	     -0.00635      8.27577     -2.15681         0.052288     -0.177366     -0.439212
O	      8.44338      6.11828     -0.15804         0.054846      0.484862      0.232882
O	      8.20052     10.14802     -4.16428         0.068458      0.833009     -0.350285
O	      2.12179      4.18464      0.01110        -1.129024      0.493765     -1.329068
O	      2.01999      8.27724     -4.25498        -0.933195      0.577891     -0.593216
O	     10.46850      6.21600     -2.18112        -0.762486      0.694955     -0.457480
O	     10.48085     10.28860     -6.10979        -0.758190      0.660549     -1.069283
O	      2.05919      6.15560      1.88507        -1.164016      0.771998     -0.397938
O	      2.00736     10.31061     -2.22962        -0.815978      0.454490     -0.458136
O	     10.44766      8.23367     -0.14147        -0.790689      0.556200     -0.785353
O	     10.48863     12.27986     -4.26046        -0.816285      0.754931     -0.535171
O	      0.14616      4.02876     -1.89054        -0.172371     -0.766584      0.827147
O	     16.62504     12.14018    -10.22213        -0.146823     -0.281109      0.910958
O	      8.23656      6.08924     -4.01557        -0.319262     -0.891949      0.278267
O	      8.54211     10.13347     -8.02580        -0.202471     -0.667627     -0.177090
O	      0.16517      5.95850      0.02429        -0.281693     -0.821877      0.782491
O	     16.63581     14.23934     -8.12181        -0.232563     -0.907426      0.273036
O	      8.24347      8.05044     -2.05514        -0.137186     -0.266215      0.840318
O	      8.55482     12.07433     -6.10244        -0.141039      0.041285      0.846316
O	      2.04554      7.97634     -0.05192         0.646383     -0.516559      1.387575
O	      2.10841      8.06888     -8.08859         1.299231     -0.458578      0.450156
O	     10.54268      5.99749     -6.00470         0.902966     -0.847738      0.599409
O	     10.44371     14.09180     -6.18739         1.194352     -0.587947      0.960094
O	      2.07983      6.02135     -1.92577         0.909685     -1.026766      0.619754
O	      2.11401     10.07980     -6.04837         1.259993     -0.509074      0.480834
O	     10.56882      8.01150     -3.96938         1.118371     -0.447617      0.540902
O	     10.45955     12.13189     -8.05823         0.634378     -0.822602      0.580623
