# total energy = -592.19226966 eV
 
CRYSTAL
PRIMVEC
12.246984 -0.001903 -0.000198 
0.001437 8.177282 0.016711 
4.081041 4.073222 8.519357 
PRIMCOORD
69 1
Ti	      2.00213      2.04280      2.19408         0.238106     -0.015269     -1.054217
Ti	      4.09061      4.07669      6.40571        -0.270246      0.054459     -0.243880
Ti	      1.98615      6.13081      2.18196        -2.655899      0.021035      0.367812
Ti	      4.09122      8.16961      6.41312        -0.257878     -0.043618     -0.239136
Ti	      6.15489      2.04211      2.19725        -0.181886     -0.006464     -1.178114
Ti	      8.16098      4.08768      6.33205         0.039064     -0.435092     -1.922963
Ti	      6.17390      6.12995      2.18026         2.727647      0.008219      0.334961
Ti	      8.16202      8.15759      6.34085         0.035677      0.449420     -1.927762
Ti	     10.20920      2.04148      2.09978        -0.031092      0.003791      0.896460
Ti	     12.23808      4.07717      6.39761         0.231459      0.055079     -0.314907
Ti	     10.21006      6.13056      2.09679        -0.057824     -0.000446      0.661106
Ti	     12.23862      8.16739      6.40506         0.226012     -0.046635     -0.308532
Ti	     12.21292      2.04578      0.00870         0.343034     -0.008380     -0.440562
Ti	     14.28424      4.05019      4.25648        -0.041072      0.411417      0.832444
Ti	     12.22136      6.13377      0.01575        -0.035036     -0.007350     -0.216104
Ti	     14.28478      8.20159      4.26698        -0.037324     -0.412025      0.796817
Ti	      8.16424      6.11993      8.49448         0.025545     -0.004409      0.626222
Ti	      6.12970      4.04743      4.26627        -0.447427      0.425756      0.141338
Ti	      8.16564     10.20923      8.47400         0.004158      0.000804     -2.407389
Ti	      6.13029      8.20625      4.27494        -0.442119     -0.431260      0.134841
Ti	     12.28108      6.11955      8.52221        -0.375986     -0.001808     -0.324855
Ti	     10.19878      4.08459      4.26200         0.470984      0.047854     -0.235971
Ti	     12.27400     10.20752      8.52223         0.035892     -0.003087     -0.063781
Ti	     10.19962      8.16868      4.27057         0.463634     -0.044814     -0.232272
O	      2.09367      2.04761      0.06717         0.141427     -0.004253      1.818365
O	      4.07632      4.07317      4.27519         0.172748      0.030431      2.089827
O	      2.10591      6.13602      0.08032         0.767398     -0.003295      2.044727
O	      4.07762      8.18061      4.28236         0.162658     -0.035537      2.098313
O	      6.07124      2.04643      0.06814        -0.218486     -0.000698      1.773103
O	      8.16339      4.08170      4.22916        -0.188389     -0.047844      2.669441
O	      6.06263      6.13481      0.07915        -0.815473      0.001591      1.990926
O	      8.16452      8.17056      4.23723        -0.187003      0.042181      2.668985
O	     14.28681      6.11912      8.49407         0.040094     -0.005252      2.503054
O	     12.25051      4.08210      4.27881         0.029517     -0.024473      2.198261
O	     14.28717     10.20770      8.50127         0.012620     -0.004797      2.338679
O	     12.25049      8.16938      4.28637         0.036771      0.019565      2.205385
O	      4.08206      2.04270      2.03055         0.007523      0.004983     -1.898311
O	      6.11963      4.08705      6.39589         0.509250     -0.020841     -2.047719
O	      6.12080      8.15962      6.40422         0.502562      0.025097     -2.043692
O	      8.14479      2.04169      2.12655        -0.023031      0.005219     -2.190405
O	     10.20721      4.08131      6.38095        -0.508844      0.021824     -2.010619
O	      8.16277      6.13109      2.11096        -0.466714     -0.002030     -2.205265
O	     10.20788      8.16448      6.38945        -0.505446     -0.021645     -2.008139
O	     12.26177      2.04176      2.13921         0.034964     -0.000916     -2.254069
O	     14.28695      4.08372      6.37863         0.006776     -0.043320     -2.278182
O	     12.24733      6.13004      2.12880         0.491758      0.001143     -2.284802
O	     14.28745      8.16097      6.38863         0.009201      0.044744     -2.291863
O	     12.24629      8.17614      0.02148         0.087337      0.066931     -2.280670
O	     14.29226     10.21375      4.30800         0.002831      0.002807     -2.630855
O	     12.24619      4.09282      0.01276         0.082726     -0.070212     -2.274341
O	      2.07124      6.12751      4.22425         0.195635     -0.000220     -2.579815
O	      6.12500     10.21563      4.31329        -0.000324      0.004182     -2.475609
O	      6.09396      6.12687      4.21348        -0.163923      0.000019     -2.350971
O	     12.24673      4.07595      8.51831        -0.083681      0.021484     -2.301521
O	     10.20005      2.03817      4.24064        -0.018081     -0.002466     -2.452035
O	     12.24800      8.16230      8.52712        -0.087898     -0.019537     -2.298086
O	     10.19919      6.12610      4.24088        -0.009695      0.001439     -2.292923
O	      2.05695      4.11009      2.15994         0.380692      0.091924      2.072517
O	      4.09358      6.12328      6.40980        -0.021594      0.005134      2.547919
O	      2.05704      8.15291      2.16757         0.384517     -0.092712      2.075946
O	      4.09576     10.21208      6.42234         0.010162      0.001766      2.430102
O	      6.09859      4.11272      2.15685        -0.362991      0.061224      2.125657
O	      8.16149      6.12221      6.41989         0.009901     -0.005137      2.486960
O	      6.09950      8.14909      2.16540        -0.363744     -0.061172      2.124870
O	      8.16695     10.21124      6.42096        -0.019929     -0.000899      2.044434
O	     10.21171      4.08720      2.12722        -0.033445     -0.111365      2.207783
O	     12.23467      6.12228      6.40659         0.019238      0.001383      2.552628
O	     10.21236      8.17313      2.13524        -0.031461      0.107992      2.205747
O	     12.23121     10.21106      6.41304         0.004421     -0.001621      2.494709
