# total energy = -75.34519343 eV
 
CRYSTAL
PRIMVEC
2.156583 4.299047 2.139079 
4.300685 -2.134671 -2.156403 
0.011549 4.328544 -4.348290 
PRIMCOORD
12 1
Ti	      2.17174      4.35875     -2.14225        -0.624937     -0.417320      0.482280
Ti	      4.52751      4.60197     -4.62778         0.648968      0.529110      0.390938
Ni	      2.30313      0.16583     -2.16699        -0.360089      0.117747     -0.602595
Ni	      2.30913      2.40594     -4.41713        -0.238578     -1.088246     -0.100071
O	      2.19609      2.31872     -2.29315         0.341313      1.300952     -1.229180
O	      4.35357      4.52297     -2.30507        -1.611276      1.339885     -0.040845
O	      2.34567      4.43746     -4.46509         1.410330     -1.457898      0.860056
O	      4.49124      2.16180      0.02355        -0.377458      0.012992      0.932114
O	      4.39825      0.03857     -2.12564        -0.744560      0.205990      1.082993
O	      2.28900      4.44207     -0.14402         0.743078     -0.071799     -2.091439
O	      4.55746      2.36539     -4.48352         0.726540      1.401368      0.121097
O	      2.14181      6.59514     -2.28669         0.086671     -1.872779      0.194652
