# total energy = -63.24127166 eV
 
CRYSTAL
PRIMVEC
-0.001291 2.164236 2.154024 
4.058512 0.108682 -0.112676 
0.477852 8.741865 -8.704587 
PRIMCOORD
12 1
Mn	      4.50305     10.88995     -6.66337        -0.011902      0.267397     -0.287412
Mn	      1.92760      2.31765     -0.21644        -0.022944      1.330353     -1.700479
Ni	      0.57855      6.36225     -6.28442         0.007747     -0.954795      0.984778
Ni	      2.53777      8.65566     -6.40282         0.001678     -0.227989      0.177550
O	      2.57612      6.70826     -6.59567         0.036606      0.435685     -0.440398
O	      0.49528      8.82516     -6.55938         0.004777     -0.075538     -0.166386
O	      2.47512      4.34691     -4.26436         0.731405     -0.383179      0.357541
O	      0.56435      6.57238     -4.33102        -0.115273      0.454065     -0.467016
O	      1.88856      2.20457     -2.08993         0.060070     -1.453670      1.068673
O	      3.97166      4.63839     -2.35192        -0.679543      0.518187     -0.500640
O	      1.98838      2.11117      1.83107        -0.001404      0.245217      0.311370
O	      3.97507      1.92726     -0.12974        -0.011216     -0.155734      0.662418
