# total energy = -123.26660284 eV
 
CRYSTAL
PRIMVEC
-0.007017 6.169323 6.218551 
6.196444 -0.006357 6.218102 
4.123007 4.104565 0.003505 
PRIMCOORD
27 1
Sc	     10.23022      6.18097      8.27999         0.259503     -0.274079     -0.281702
Ni	     10.27898      4.10311      6.19091        -0.450406      0.425767     -0.244801
Ni	      8.25450      8.22949     12.40320        -0.410067      0.375682     -0.249773
Ni	      6.20719     10.24821      8.30524         0.690065     -1.453233      0.345710
Ni	      4.14086      8.20091      8.30663         0.408391     -0.024678      0.233888
Ni	      2.09592      2.06548      4.17914         0.049213      0.410139      0.606992
Ni	      6.17401      4.12632      6.18609         0.401639      0.243814      0.161035
Ni	      0.00218      4.13022      4.15700         0.327023     -0.038002     -0.402375
Ni	      2.05382      6.14559      4.16311        -0.162339     -0.330443     -0.643313
O	      2.07571      1.92015      2.12686        -0.185441      0.250688     -0.355237
O	      4.26945      4.05744      2.02408        -0.272687     -0.135243     -1.045225
O	      4.04452      2.07180      3.97955        -0.438921     -0.129158     -0.403559
O	      6.17167      4.22783      4.18411         0.155990      0.911978     -0.175369
O	      6.29629      2.08838      6.15438         0.971993     -0.237082      0.484795
O	      8.19635      3.94006      6.22886         0.076273     -0.577776     -0.053610
O	      1.91318      4.07184      4.20491        -0.746942     -0.118431     -0.096074
O	      4.15852      6.31192      4.16612        -0.214310      0.498905     -0.283005
O	      4.28179      4.08174      6.20721         0.422276     -0.061870     -0.068067
O	      6.23391      6.04773      6.10936        -0.055955     -0.306444     -0.501584
O	      6.18638      4.10811      8.20831        -0.159885     -0.253585     -0.192151
O	      8.26348      6.11389      8.39883        -0.604467      0.117503      1.197617
O	      2.00541      6.33061      6.19842        -0.658215      0.441827     -0.017535
O	      3.98008      8.27463      6.34207        -0.541687      0.648199     -0.088803
O	      3.95416      6.25798      8.29412         0.305983      0.446055      0.108980
O	      6.15252      8.37589      8.28771        -0.262684     -0.042940      0.054042
O	      6.25039      6.00964     10.42215         0.668101     -0.368527      1.004167
O	      8.42927      8.14846     10.42717         0.427556     -0.419063      0.904958
