# total energy = -66.26074682 eV
 
CRYSTAL
PRIMVEC
2.034515 4.202172 2.034334 
2.073863 -4.241952 2.073615 
4.127612 -0.000061 -4.127209 
PRIMCOORD
12 1
Mn	      0.01254     -0.02008      0.00924         0.666716      0.399062     -0.570708
Mn	      2.07110      2.11240     -0.02481        -0.057212     -0.182375      0.139589
Ni	      4.12197      2.11257     -2.07602        -0.124892     -0.163323      0.138178
Ni	      4.15721     -0.01898     -0.02699        -0.259620      0.048243      0.203794
O	      6.30404     -0.03192     -0.02667         0.102836     -1.002326      0.068139
O	      4.00607      1.99774     -0.01448        -0.712983     -0.461314     -1.521286
O	      4.15629     -0.00624     -2.17389        -0.059713      1.005662     -0.117700
O	      4.13222     -0.19341      2.13242        -0.152027     -0.390200      0.345137
O	      4.14439     -2.03615      0.12367         1.466532      0.505791      0.645014
O	      2.06359      2.26013      1.95725        -1.181314      0.221145     -0.673322
O	      1.99689      0.15516     -0.00206        -0.336666      0.393112      0.152857
O	      2.17274     -2.29740      2.06612         0.648343     -0.373477      1.190308
