# total energy = -176.52888351 eV
 
CRYSTAL
PRIMVEC
-0.009088 6.494999 6.156521 
6.338034 0.011235 6.137651 
4.238870 4.330691 -0.006362 
PRIMCOORD
27 1
Mn	     10.53919      4.37524      6.14937        -0.566621      0.566187      0.546936
Mn	      8.47344      4.35290      8.16159        -0.045198      0.081460     -0.832014
Mn	      2.23740      2.05149      4.10478         1.054685     -1.369263     -0.080152
Mn	     10.48153      8.68797     10.20823        -1.120964      0.440482     -0.583253
Mn	      8.39376      6.52200     10.19619        -0.540265      0.697858     -0.369477
Mn	      4.24402      6.45759      6.20206         0.560535     -0.531242      1.562790
Cr	      6.37005      2.18901      8.15268         0.110566      0.374979     -1.467405
Fe	      6.19304      2.29416      4.08208        -0.667953      0.603152     -0.910655
Fe	      6.41520      8.61014      6.32620         0.738832     -0.232333      0.593173
O	      2.05852      2.28529      2.15162        -0.695772      1.245146      0.880308
O	      4.29151      4.50728      1.94048        -1.770504      0.414767     -0.948229
O	      4.19492      2.21248      4.06938         0.356835     -0.004609     -0.127737
O	      6.40112      4.19154      4.10739        -0.017116      0.431922     -0.108699
O	      6.34219      2.23335      6.13453         0.019587     -1.888677      0.455823
O	      8.60539      4.29928      6.28541         0.997187      0.130547      0.876441
O	      1.95215      4.50278      4.01183        -0.681559     -0.156201      0.071940
O	      4.42035      6.44514      4.11182        -0.559285      1.144994      0.090428
O	      4.09147      4.51305      6.14147        -1.054371      1.140572      0.215497
O	      6.44321      6.62449      6.03073        -1.428156      0.520769     -0.768667
O	      6.31509      4.22959      8.29147         1.606855     -0.714773      0.693162
O	      8.59390      6.41250      8.27127         0.711137     -1.221015      0.774969
O	      1.95210      6.36315      6.02864         0.503267     -0.702882     -0.711208
O	      4.30252      8.51010      6.03461         0.933433      0.369766     -0.413690
O	      4.20211      6.50982      8.05318         0.002911     -0.023839     -1.081774
O	      6.31616      8.62464      8.23093        -0.136822      0.125682      0.898956
O	      6.22413      6.60832     10.34229         1.430341     -0.359993      0.816985
O	      8.52348      8.45850     10.25494         0.258416     -1.083458     -0.074448
