# total energy = -165.16614327 eV
 
CRYSTAL
PRIMVEC
-0.007741 6.110984 6.208779 
6.239147 -0.047202 6.248069 
4.142260 4.082792 -0.014501 
PRIMCOORD
27 1
Ti	      6.08882      6.07443      8.23622        -2.100443      0.928967     -0.002200
V	      6.24745      8.11501     10.38779        -0.052201     -0.261079     -2.154357
V	      0.24935      4.04770      4.19170         3.128211     -0.356276      4.011812
Co	      2.12522      8.08879      6.29451         1.492285     -1.050075      0.861662
Co	      0.02008      2.04136      2.08500         0.848282     -1.405104      0.842711
Co	      4.12375      4.08617      4.12117        -0.603723      0.380430     -0.820713
Co	      8.33068      6.04393      6.23025        -1.000378     -1.213690     -0.589698
Co	      6.26447      4.04014      6.25351         0.769047      0.750932     -0.587461
Cu	      4.07753      4.04690      8.22106        -0.375582      1.071552      0.203304
O	      1.94146      2.04263      2.06970        -1.602503     -0.198768     -1.694138
O	      4.12341      4.23077      2.14896         0.084226      1.768293      1.300755
O	      4.33646      1.96076      4.29599         1.064001      0.858795      1.346060
O	      6.21835      3.95085      4.33883        -1.002216     -1.533784      0.570229
O	      6.14043      2.09397      6.27365         0.806106      0.136472     -0.333190
O	      8.17774      4.09530      6.23667        -1.061236      0.467816      0.248854
O	      1.99891      4.07321      4.17195        -2.003025      0.042370     -0.142364
O	      4.10145      6.24158      3.97746        -0.053004      0.672897     -1.226059
O	      4.28987      3.93733      6.19920         0.762131     -0.789311      0.049530
O	      6.39049      5.97950      6.28354         1.115740     -0.851816      0.467534
O	      6.33095      4.04455      8.29673        -1.254243     -0.554286     -0.286848
O	      8.33818      6.17251      8.15118         0.472329      0.568376     -0.983368
O	      2.06286      6.14554      6.21369         0.145640      1.678672      0.291196
O	      4.16002      8.14436      6.03578        -1.288540      0.011626     -3.264565
O	      4.24920      5.99226      8.22967         1.156404     -1.235541     -0.306329
O	      6.06407      8.00729      8.42407         1.313653     -0.039023      2.066013
O	      6.24986      6.02777     10.22720         0.102626      0.152282     -0.385059
O	      8.13427      8.12015     10.35996        -0.863586     -0.000724      0.516692
