# total energy = -151.51551882 eV
 
CRYSTAL
PRIMVEC
0.007775 6.253587 6.195678 
6.248798 -0.006561 6.209952 
4.187487 4.200304 -0.026804 
PRIMCOORD
27 1
Mn	      8.27581      6.27210     10.36348        -0.648379      0.990453     -0.141694
V	      2.35640      2.00489      4.01954         3.277399     -0.980879     -0.473520
V	      4.10718      8.35697      4.19292        -1.670236      1.831077      0.671403
Co	     10.34201      6.28395      8.25794         0.216313     -0.829987     -0.788599
Co	      6.25076      4.16801      6.19436         0.692038      0.551162     -0.260685
Co	      6.18653      6.39135      8.26992        -1.874499      0.376942      0.263114
Ni	      2.06309      2.12523      0.05789         0.312709     -0.155100      0.683585
Ni	      2.18045      4.17647      6.26338        -0.105746      0.153773      1.134924
Ni	      4.18992      4.22611      4.06681         0.727245     -0.968076     -0.378509
O	      2.10274      2.11240      2.22862        -1.889424     -0.005722     -0.484955
O	      4.14212      4.43139      2.06239        -0.097491      1.849791      0.660457
O	      4.09096      2.11333      4.05912        -2.120361      0.567962     -0.111261
O	      6.25566      4.40436      4.04662        -0.924009      0.432594      1.124370
O	      6.26004      2.22527      6.36442         0.802343      0.894685      1.273648
O	      8.12690      4.14028      6.20932        -2.194303     -0.812750      0.227456
O	      2.03418      3.95140      4.22126        -0.437562      1.200792      0.793248
O	      4.08085      6.31947      4.01690        -0.560788      0.347323     -0.758724
O	      4.30526      4.14864      6.08787         0.747236      0.125263     -0.747287
O	      6.27645      6.19023      5.97809        -0.099992     -0.659463      0.421604
O	      6.23371      4.02386      8.48010        -0.055574     -0.235145      0.179548
O	      8.17503      6.23495      8.42439        -0.042868      0.043914      0.848668
O	      2.11238      6.26100      6.07335        -0.031134      0.067113     -1.089845
O	      4.19722      8.34040      6.02691        -0.012863     -0.087720     -2.037113
O	      4.40165      6.23843      8.24285         3.411961      0.547693     -0.056043
O	      6.29976      8.36302      8.20440        -0.199063     -1.738793     -0.824794
O	      6.30912      6.12837     10.34042         0.972900     -1.931143     -0.852315
O	      8.43006      8.38493     10.39408         1.804146     -1.575758      0.723319
