# total energy = -146.67196424 eV
 
CRYSTAL
PRIMVEC
-0.033358 6.158944 6.266417 
6.210541 -0.005712 6.238622 
4.146999 4.094123 -0.010544 
PRIMCOORD
27 1
Mn	      2.05096      0.02774      2.06606        -0.139523      0.224142     -0.919470
Mn	      8.22794      4.18415      8.35256         0.179131     -0.539899      0.238839
Cr	      4.12034      8.19011      8.30826        -0.100666      0.125673     -1.761984
Cr	      8.31815      4.09105      4.19402         1.939625     -0.518172     -0.361306
Cu	      6.13803      4.15679      6.30938        -0.091833      0.148383      0.850738
Ni	      2.05856      8.17129      6.20884         0.215077     -0.539471     -0.058830
Ni	      6.21228      8.17913     10.43275         0.176446     -0.455771     -0.376575
Ni	      4.10714      4.12628      4.21537        -0.099994      0.282418     -0.075466
Ni	      2.05698      4.04693      6.20588        -0.285991      0.289346     -0.212427
O	      6.18154      6.14809      6.27172        -0.210730     -0.429750     -0.233059
O	      2.14468      2.01239      2.02602         0.704501      0.081498     -0.817225
O	      4.15891      4.04357      2.13553        -0.189869     -1.166078      0.623141
O	      4.18482      2.03480      4.06015         0.982863     -0.409603     -0.596736
O	      6.24740      4.07427      4.03249         0.236048     -0.764580      0.570857
O	      6.28632      2.15573      6.13221         0.808660      0.620407     -0.878043
O	      8.22940      4.06250      6.28859        -1.009475     -0.433866      0.030901
O	      2.07529      4.08548      4.03410         0.436220      0.392672     -0.592992
O	      4.10689      6.03219      4.16398         0.027699      0.011997      0.158766
O	      4.12824      4.09047      6.18821         0.232885      0.033235     -0.500357
O	      6.36256      4.07366      8.31609         0.826615      0.478644     -0.768876
O	      8.29327      5.99239      8.31204        -0.299456     -0.598681      0.384283
O	      2.01745      6.12640      6.43298         0.060429     -0.113373      0.780749
O	      4.13037      8.18879      6.35322        -0.196882     -0.144151      1.978357
O	      3.95388      6.20269      8.46818        -0.517993      1.112853      0.832317
O	      6.12665      8.34103      8.33556        -0.803548      0.476826      0.189731
O	      6.05009      6.21083     10.42268        -1.623826      0.838273      0.232329
O	      8.24995      8.28632     10.41933        -1.256414      0.997027      1.282340
