# total energy = -102.47343694 eV
 
CRYSTAL
PRIMVEC
-0.000044 2.107446 2.107443 
8.042785 -2.157913 2.157710 
-0.010921 4.293711 -4.293681 
PRIMCOORD
16 1
Li	      0.05070      0.19093     -0.19038         0.023507     -0.003370      0.002541
Li	      1.85297      2.11624     -0.01013         0.009107     -0.001825      0.002313
Li	      3.96911      2.12388     -2.12130        -0.007089     -0.021230      0.019702
Li	      0.03172      1.94976     -1.94929         0.013530      0.005471     -0.005670
Ti	      1.91247      4.24897     -2.13242        -0.176016     -0.051710      0.059022
Ti	      6.08593      2.14127     -0.03290         0.039059      0.037464     -0.036580
Ni	      6.07450     -0.03789      2.14544        -0.107909     -0.010849      0.009137
Ni	      3.99370      2.10515      2.10913        -0.028986      0.044357     -0.043701
O	      4.15677      2.07932      0.02732         0.141535      0.088126     -0.086371
O	      4.00714      0.01901      2.08752        -0.093562     -0.093714      0.093974
O	      6.05717      2.19398      2.02042         0.100647      0.107549     -0.107242
O	      6.02121      4.14122      0.07337        -0.000632     -0.127635      0.128815
O	      7.98115     -0.03666      2.14408         0.201641     -0.003716      0.002907
O	      2.01275      4.38212     -0.16837        -0.017775      0.112170     -0.118169
O	     -0.00697      4.26733     -2.15997         0.039443     -0.001403      0.003206
O	      1.99234      1.97739      2.23440        -0.136499     -0.079683      0.076114
