# total energy = -145.13714142 eV
 
CRYSTAL
PRIMVEC
0.007945 6.142928 6.286772 
6.211798 0.012803 6.281806 
4.139891 4.090589 0.010031 
PRIMCOORD
27 1
Mn	      6.21813      2.06915      8.35568         0.674984      0.062499      0.413462
Mn	      2.08574      6.16377      4.23310         0.872450      0.206765      1.088757
Mn	      6.17641      8.19861      6.29650         0.985436      1.310278     -0.599681
Co	      8.23469      4.04305      4.24954         0.073065     -0.414190     -0.335858
Co	      6.17592      6.10539      4.18548        -0.564335     -0.471076     -0.263036
Cu	      6.19141      2.08090      4.18208         0.314820      0.457012     -0.077718
Cu	      4.16715      2.10823      6.25055        -0.059215      0.252437      0.235485
Cu	      6.15666      6.11720      8.32344        -0.790248     -0.370847      0.008124
Ni	      2.09574      4.06624      2.05790         0.317442     -0.506547     -0.225253
O	      4.29740      8.16207      6.30172         0.153791      0.264192      0.106783
O	      4.20693      6.12476      8.70040         0.426693      0.050759      1.467126
O	      6.21293      8.09790      8.18493        -0.128892     -0.805487     -0.346772
O	      1.93899      2.05864      2.12838        -0.838221      1.254017      0.968339
O	      4.09877      4.24688      2.10598        -1.143088      0.665660     -0.123791
O	      4.16812      2.01976      4.25947         0.581638     -0.832572      0.009839
O	      6.28204      4.05652      4.19071         1.229130     -0.481261     -0.016519
O	      6.11420      2.08880      6.48033        -1.075096     -0.068334     -0.028326
O	      8.32468      4.16439      6.11564         0.007269      1.299032     -0.443262
O	      2.06246      4.17499      4.26153        -0.108548     -0.141419      0.467863
O	      4.06367      6.17181      4.06700        -0.063075     -0.123436     -0.880394
O	      4.00136      4.05415      6.27649        -0.630317     -1.127309      0.215513
O	      6.26322      6.22626      6.25064         1.017130      0.526920      0.012431
O	      6.29937      4.09372      8.34559         1.254762     -0.136187      0.042738
O	      8.37461      6.13083      8.50206        -0.244699     -1.011091     -0.312373
O	      2.10272      6.03317      6.15192        -0.400303     -1.243704     -0.730131
O	      6.32135      6.22881     10.37971        -0.377276      1.136061     -0.579122
O	      8.19652      8.11594     10.55375        -1.485298      0.247829     -0.074224
