# total energy = -158.91642665 eV
 
CRYSTAL
PRIMVEC
-0.054098 6.409783 6.212313 
6.207825 0.013064 6.143709 
4.175590 4.265419 -0.029021 
PRIMCOORD
27 1
Sc	      2.19666      4.19374      2.02763        -0.259460      0.111278     -0.279185
Sc	      4.10437      4.39269      8.19207        -0.606928     -0.067748     -0.368907
Ti	      6.15737      2.20303      4.25775        -0.670728      0.308917      0.303590
Co	     10.29688      8.57788     10.29927        -0.462240     -0.702745      1.910878
Co	      6.16199      8.52013      6.09791        -0.332416      0.369263      0.271502
Co	      6.16230      6.46837      8.18277        -1.178630      0.959723     -0.042553
Cu	      6.22135      6.30291      4.09714         0.244516     -0.504437     -0.527590
Cu	      6.20108      4.25360      6.13856         0.042467     -0.697645     -0.852565
Cu	      2.07429      6.44165      4.16053         0.215399      0.074721      0.572909
O	      3.92905      6.68232      4.09034         0.112266      1.513782     -0.049288
O	      2.07871      6.12853      6.03751         0.049908     -1.206774     -0.639434
O	      2.05608      2.13644      2.17319         0.154403      0.037284      1.272623
O	      4.13174      4.27175      2.07448         1.391969     -0.134498      0.219013
O	      4.34994      2.07835      4.09648         0.110899      0.060301      0.177026
O	      6.21365      4.18856      4.14857        -0.103050      0.082270      0.831637
O	      6.24541      2.00701      6.05914        -0.342046      0.937489     -0.556770
O	      8.13625      4.29623      6.19251        -0.942626      0.075062     -0.358138
O	      1.83811      4.07119      4.23043        -0.542721     -0.135741     -0.127341
O	      4.05618      4.25943      6.13613        -0.256115      0.295853      0.221818
O	      6.23369      6.64201      6.10717        -0.114212      0.094311      0.465158
O	      6.18399      4.49959      8.24586         0.248738      0.682945      0.229929
O	      8.17301      6.45942      8.34461        -1.153499     -0.031513      0.553351
O	      4.28997      8.55491      6.02538         1.018927      0.308482     -1.456207
O	      4.28640      6.43970      8.19900         2.198082     -0.067434     -0.108585
O	      6.19393      8.44510      8.12771         0.447528     -1.419118     -0.304647
O	      6.36667      6.37688     10.25804         0.404459     -0.331621     -0.913687
O	      8.29239      8.70716     10.28345         0.325110     -0.612406     -0.444537
