# total energy = -139.93214640 eV
 
CRYSTAL
PRIMVEC
0.025796 6.197677 6.286518 
6.169554 0.028617 6.283679 
4.111784 4.128641 0.020278 
PRIMCOORD
27 1
V	      4.27954      6.11596      6.37250         1.699784     -0.343241     -0.033419
Fe	      0.05147      0.01802      0.04078         0.630528     -0.452140      0.505448
Fe	      2.03162      2.06246      0.09719        -0.229199     -0.486807      0.512492
Co	      0.04788      4.10895      4.17023         1.116373     -0.502655     -0.629567
Cu	      6.17312      8.28558     10.43530        -0.177461     -0.206160      0.147408
Cu	      8.20194      4.20861      8.38451        -0.441748     -0.201764     -0.020231
Cu	      4.12782      4.11983      4.13214        -0.031293      0.097964      0.179554
Cu	      8.24388      8.17347      8.42372         0.082674     -0.421736     -0.995549
Ni	      4.05913      0.08230      4.14549        -0.640957      1.002422     -0.332642
O	      8.23759      6.21464      8.36007        -0.000603     -0.098212     -0.001202
O	      4.12462      6.21310      8.20458         0.037582     -0.829992      0.504381
O	      6.30657      8.24173      8.50529         0.591751      0.139490      0.944916
O	      2.04634      2.15185      2.01174        -0.041787      1.146015     -0.774176
O	      4.04004      4.14249      2.00800        -1.007918      0.177348      0.548434
O	      4.18114      2.09919      4.19643         0.842489      0.137677     -0.218051
O	      6.13968      4.08519      4.19976        -0.149528     -0.834264     -0.368913
O	      6.22180      2.03479      6.16269         1.008880     -0.473560     -1.106258
O	      8.26104      4.11697      6.32970         0.761471     -1.370809      0.573434
O	      2.00205      4.13807      4.05704        -0.367771      0.041708     -1.275237
O	      4.10297      6.25564      4.42111         0.041285      0.108781      0.581649
O	      4.09786      4.30379      6.28800        -0.202741      0.470051     -0.138553
O	      6.02026      6.21937      6.30331        -1.447007      0.033363      0.079499
O	      6.14259      4.14120      8.56356         0.151336      0.029763      1.428084
O	      2.09939      6.26184      6.31691        -0.148712      1.703404      0.220943
O	      4.12681      8.19265      6.16805        -1.219398      0.415763     -0.848973
O	      6.12384      6.12522     10.57983        -0.597674      0.183835      0.586836
O	      8.32849      8.35018     10.52535        -0.260357      0.533754     -0.070307
