# total energy = -176.86959948 eV
 
CRYSTAL
PRIMVEC
0.032339 6.254709 6.196881 
6.450168 0.033776 6.195707 
4.330206 4.199706 -0.008215 
PRIMCOORD
27 1
Sc	      6.50235      4.20916      6.31341         0.670814     -0.537827     -1.167495
Ti	      8.60452      6.19033     10.21033        -0.821845     -0.526742     -0.527348
V	      4.23531      2.16301      2.04909         0.269271      1.203464     -1.745649
V	      6.57887      8.37260     10.20943         2.640169     -0.331947     -2.201207
V	      8.63244      6.28535      6.25409         0.838763     -2.152661      2.062647
V	      4.29528      6.30444      6.21939        -2.598143      1.155397      1.677779
Cu	      2.09841      2.13110      4.06640        -0.600406      0.492088     -0.586823
Ni	      8.61731      2.16499      6.20061        -0.280285      0.244137     -0.117023
Ni	      4.33016      4.19321      4.11650        -0.359847      0.328644     -0.789753
O	      2.28953      2.08984      2.11927         1.898533      0.226865      0.432648
O	      4.35771      3.98107      2.08625        -0.251976     -2.246519      0.436085
O	      4.47042      2.10045      4.16592         0.003990      0.369887      0.237583
O	      6.42217      4.12946      4.11928        -0.668665     -0.581111      0.733349
O	      6.44314      2.10767      6.07005        -1.499569      0.773939     -0.657132
O	      8.59838      4.29200      6.18116        -0.984972      2.832706      0.377061
O	      2.20937      4.26269      4.11776         0.758438     -0.199865     -0.132007
O	      4.19801      6.25660      4.17614         0.675213     -0.303458      2.200671
O	      4.32909      4.15700      6.20400         0.761875      0.121234     -0.258885
O	      6.45099      6.31650      6.05544        -0.215379     -0.581803     -0.612993
O	      6.45511      4.20575      8.25895         0.048035      0.008783      1.737631
O	      8.65388      6.30324      8.28059        -0.151343      0.037493     -1.663752
O	      2.30788      6.31831      6.08999         3.203603      0.370262     -0.370069
O	      4.26549      8.35461      6.28472        -0.081295     -2.328745      1.830666
O	      4.37446      6.45621      8.20291         0.022327      0.706965     -3.342390
O	      6.38756      8.37121      8.40351        -1.481690     -0.158242      2.287884
O	      6.67358      6.37749     10.33544         0.777908      1.772564     -0.409901
O	      8.51775      8.32880     10.32969        -2.573525     -0.695508      0.568421
