# total energy = -187.88514695 eV
 
CRYSTAL
PRIMVEC
0.006474 6.284853 6.686123 
6.221177 0.052711 6.640577 
4.197084 4.208825 -0.015431 
PRIMCOORD
27 1
Sc	      4.20640      8.40791      8.91984         0.244503      0.940771      0.962031
Sc	      4.16540      6.36533      6.46934        -0.071577     -0.679039      0.225646
Ti	      0.16283      6.42532      6.67746        -0.333408      0.461933      1.221197
Ti	      6.22746      4.27662      2.39181        -1.953965      0.048395      1.066819
Ti	      8.39021      4.26395      4.57153        -0.282362      1.534483     -0.513236
Cr	      8.34997      8.36757      8.83441        -0.178948     -2.594310     -0.457053
Fe	      6.20874      4.23634      6.75870        -0.247712      0.270062     -0.192985
Cu	      8.24775      2.19114      6.57676         0.161556     -0.113030      0.957888
Cu	      0.11553      4.14272      4.35906         0.601650     -0.074439     -0.532434
O	      2.11525      1.92137      2.32983         0.523365     -0.051964     -0.975804
O	      4.28001      4.20779      2.07161         1.207430     -0.715287     -1.312972
O	      4.22228      1.91601      4.29595        -0.116951     -1.202895     -0.131662
O	      6.40332      4.15518      4.33919         1.202752      0.238763      0.023504
O	      6.21399      2.06604      6.57571         1.602721      0.174830     -0.063547
O	      8.35410      4.31128      6.46162        -0.473114     -1.576091     -0.131348
O	      2.02547      4.19820      4.42170        -1.487598     -0.214139      0.006329
O	      4.13390      6.34229      4.50699         0.179529      1.999154     -0.504001
O	      4.20963      4.24182      6.72876         1.388171      0.689776      1.676005
O	      6.19228      6.19676      6.62501        -0.384488     -1.505389      0.022362
O	      6.18512      4.22125      8.66201        -1.480227      0.203771     -0.017598
O	      8.31712      6.44080      8.84567         0.000767      2.565127      0.050372
O	      2.03416      6.19774      6.93365        -0.119921      1.614058     -0.257067
O	      4.17714      8.48339      6.83615        -1.563176     -0.097062     -0.786146
O	      4.06188      6.28997      8.89068        -0.327599     -0.991595     -0.105636
O	      6.29763      8.51928      8.98656         0.967664      0.782879     -0.103869
O	      6.20793      6.28479     11.39836        -0.426443     -1.424994      0.026166
O	      8.52137      8.60235     10.83632         1.367380     -0.283766     -0.152959
