# total energy = -161.91201403 eV
 
CRYSTAL
PRIMVEC
0.018787 6.239875 6.293736 
6.353537 0.051905 6.260005 
4.273612 4.175398 -0.003029 
PRIMCOORD
27 1
Sc	      4.14798      6.30330      6.21533         1.870556      0.648879     -0.207781
V	      6.37853      2.16922      8.29636         0.122624      1.643892     -2.263863
Cr	      4.21664      4.23702      8.38024        -0.026218      0.820270      1.667252
Fe	      4.36600      8.33003      8.28269         0.523415     -0.424294     -0.397566
Fe	      6.47097      8.32001     10.44341         0.583253      0.750413      0.599057
Fe	      4.24596      4.15883      4.16825         0.436746      0.003288      0.748542
Fe	      8.37316      6.19627      6.28411        -0.088978      0.921725     -0.240910
Cu	      8.48082      4.22560      8.35984        -0.489916      0.459309     -0.194470
Cu	      6.39124      6.23543      4.16977        -0.035979     -0.254515      0.444733
O	      2.22834      4.07545      4.07152         0.730799     -1.262185     -0.680468
O	      2.06715      2.06198      2.21403        -0.570469      0.804578      0.959870
O	      4.32459      4.16917      2.17310        -1.106396      0.628378      0.337168
O	      4.45462      2.12284      4.19011        -0.133051      0.611889      0.026321
O	      6.30247      4.02216      4.24075        -1.045357      0.693671     -0.081175
O	      6.36805      2.10978      6.49598        -0.647188     -0.258490      1.681123
O	      8.46814      4.30339      6.40634        -0.123602     -0.427659      0.983716
O	      4.17783      6.14544      4.04442         0.685200     -0.906162     -0.150693
O	      4.24454      4.13632      6.28198        -0.205538     -0.024017      0.132525
O	      6.42015      6.26324      6.10840         0.178158     -0.178701     -1.463074
O	      6.22613      4.09321      8.46105         0.315016     -2.571021     -0.212787
O	      8.59868      6.38666      8.28535         1.323809     -0.404442     -0.348538
O	      2.21499      6.27304      6.25289        -1.531768      0.071994      0.165560
O	      4.27339      8.35395      6.38333        -0.300395     -0.550752      0.418438
O	      4.30063      6.29870      8.33037        -0.315631     -0.442933     -1.025912
O	      6.40310      8.35405      8.39517         0.253868     -0.148143      0.760911
O	      6.40506      6.49680     10.49168         0.210752      0.052927     -0.069443
O	      8.35505      8.43100     10.35836        -0.613710     -0.257900     -1.588533
