# total energy = -155.53234104 eV
 
CRYSTAL
PRIMVEC
0.031216 6.309204 6.482892 
6.109126 0.050925 6.462886 
4.052429 4.172676 0.053185 
PRIMCOORD
27 1
Ti	      4.09879      6.30491      6.33682        -1.201228     -0.870824      0.536138
V	      2.21154      4.25720      2.17618         1.062797      1.543443      0.024689
V	      4.09987      4.46445      8.69280        -0.747318      0.734977      0.409387
Co	      2.04367      2.10066      4.26633         0.242933     -1.846172     -0.221955
Co	      4.08530      2.15947      6.36251        -0.134174      0.157118      0.124066
Cu	      6.11043      4.29840     10.78183        -0.150634     -0.222264     -1.054494
Ni	      0.09574      6.27728      6.38788         0.493279     -0.107065      0.245209
Ni	      1.97114      2.04482      0.11170        -0.425734     -0.082253     -0.004352
Ni	      4.19540      8.37217      8.76687         0.866531     -0.131426      0.167866
O	      6.10062      6.20268     10.88124        -0.020700     -1.144202      0.434988
O	      2.04020      2.24970      2.27088         0.783079      0.374644      0.466687
O	      3.98357      4.18273      2.17289        -0.977367     -0.579259     -0.447780
O	      3.96542      2.14997      4.27922        -1.620103     -0.123943      1.435982
O	      6.09978      4.38489      4.33825        -0.079153      2.748678      0.003372
O	      6.08388      2.03906      6.42103        -1.253133     -0.486376     -0.155443
O	      8.11766      4.10777      6.77609         0.438238      0.533540     -0.370764
O	      1.97067      4.11186      4.02870        -1.310048     -1.097389      0.655302
O	      4.10849      6.34924      4.44408         1.349684      1.298259      0.139244
O	      4.04338      4.36516      6.66243         0.393375     -0.673131      0.519112
O	      6.07030      6.37229      6.27370         1.353573     -0.111167     -1.196201
O	      5.88866      4.17026      8.51346         0.178047     -0.275586      0.686373
O	      8.09035      6.10223      8.58701        -0.106276     -0.201029     -1.589414
O	      2.16047      6.35015      6.47165         0.505893      0.981774     -0.161562
O	      4.07853      8.29032      6.74855        -0.894438      0.031579     -0.706494
O	      4.14401      6.24039      8.57465        -0.235438     -0.611462     -0.447237
O	      6.31430      8.37681      8.71999         0.194219     -0.051310      0.263444
O	      8.17929      8.39832     10.57866         1.294096      0.210845      0.243838
