# total energy = -149.02415222 eV
 
CRYSTAL
PRIMVEC
0.029742 6.148356 6.221003 
6.211543 0.020934 6.230116 
4.167446 4.131924 -0.012985 
PRIMCOORD
27 1
Mn	      6.22393      4.11183      2.11740        -0.659273      0.211639      0.215483
V	      6.15366      2.13827      8.23224         0.046562     -0.241254     -0.841619
Fe	     10.26313     10.13475     12.34792        -0.103012     -0.128036      0.537495
Fe	      4.15983      6.19905      6.17770        -0.469632      0.765520      0.052652
Co	      2.30796      2.17208      4.18832         1.720554     -0.252439     -0.596644
Co	      2.08781      6.12760      4.18049         0.074931     -0.354993     -0.198928
Ni	      6.28535      4.14080      6.12582         0.750475     -0.790982     -0.211427
Ni	      8.28740      8.25829      8.30990         0.142208     -0.156871      0.010115
Ni	      6.22207      6.24670      8.32695        -0.097689      0.055843      0.254773
O	      1.87994      1.96591      2.19699         0.070204     -0.634768      1.302252
O	      4.28548      4.24044      1.99692         0.629186      0.627859     -0.782518
O	      4.06335      2.10775      4.15764        -2.728446      0.359934      0.064572
O	      6.24520      4.21730      4.05567         0.189920      1.631588     -0.100700
O	      6.22721      2.03965      6.42274         0.011207     -0.064080      0.731897
O	      8.35290      4.11307      6.19878        -0.415870     -0.221573     -0.181991
O	      2.09849      4.17105      4.12571         0.241801      0.477802      0.296249
O	      4.09609      6.16223      4.06224        -0.449491     -0.146803      0.506321
O	      4.25840      4.23001      6.26735         0.540504      0.918455      0.916540
O	      6.18775      6.18208      6.24947        -0.918558     -0.776176     -0.736999
O	      6.24200      3.98999      8.26056        -0.940563      0.265638     -0.377274
O	      8.46153      6.15815      8.27831        -0.368141      0.650888      1.073108
O	      2.08587      6.16513      6.36555         0.438505     -0.070291     -0.280880
O	      4.16072      8.19992      6.23221        -0.270861      0.097993     -0.368911
O	      4.08520      6.18515      8.27179         0.029102     -0.927062     -0.860516
O	      6.25525      8.33069      8.31688         1.255297      0.148691      0.082397
O	      6.36194      6.15852     10.35948         1.597412     -0.088981      0.132564
O	      8.32135      8.01922     10.31357        -0.316334     -1.357540     -0.638009
