# total energy = -151.04675568 eV
 
CRYSTAL
PRIMVEC
-0.000570 6.020127 6.185422 
6.476149 0.027678 6.157242 
4.344634 4.020507 -0.007711 
PRIMCOORD
27 1
Mn	      0.00445      1.99404      2.05179         0.052391      0.178427     -0.592463
V	      4.24908      0.11734      4.09204        -1.518210      1.632508     -0.330016
Fe	      4.38971      8.00459      4.24084         0.215181     -0.539198     -0.363791
Co	     10.78662      4.03947      6.13998        -0.606681     -0.227795      0.114655
Co	      2.18589      5.99219      8.13526         0.248238      0.382856     -0.175721
Co	      6.23328      4.04216      6.16436        -0.713976     -0.068021     -0.044850
Co	      6.62522      6.19563      8.16316         0.133509      1.128621     -0.988735
Cu	      4.19247      3.96612      4.06852        -0.617947     -0.887848      0.406879
Cu	      2.16861      6.05765      4.18044         0.006940      0.243534     -0.123467
O	      1.89106      6.02641      6.16269        -1.417472     -0.099140     -0.060116
O	      1.92287      1.93847      2.06085        -0.662535     -1.702367     -0.223334
O	      4.31268      4.08783      2.01975         1.164745      0.655406     -0.314094
O	      4.29994      1.93729      4.02867         0.062452     -0.578598      0.047881
O	      6.78004      3.97083      4.16089         0.502289     -0.082337     -0.093375
O	      6.43894      2.00276      6.29732         0.138048     -0.120562      1.003105
O	      8.82398      4.06306      5.95837         1.133210     -0.055894     -0.274549
O	      1.97917      4.09417      4.12668         0.006494      1.352479      0.193350
O	      4.41649      5.99687      3.99859        -0.791095     -0.140156     -0.626883
O	      4.43419      4.02237      5.98588         1.373390      0.177855     -0.769010
O	      6.55585      5.93744      6.24358        -0.201915     -1.230800      0.931526
O	      6.50121      4.00778      8.16968        -0.109427      0.041675     -0.027008
O	      8.75976      6.07071      8.31008        -0.323002      0.056083      1.462917
O	      4.30915      8.10418      6.16946         0.006395      1.898202     -0.555325
O	      4.42222      6.03295      8.38358        -0.017673      0.058576      1.010435
O	      6.57812      7.99967      8.24243         0.006760     -0.270097     -0.208499
O	      6.29903      6.04861     10.34499         0.589970     -0.802816      0.392107
O	      8.79977      8.14047     10.28611         1.339923     -1.000594      0.208381
