# total energy = -153.09015639 eV
 
CRYSTAL
PRIMVEC
0.037056 6.165827 6.400003 
6.139371 0.035426 6.401730 
4.084043 4.102793 0.032947 
PRIMCOORD
27 1
Mn	      8.18091      4.14513      8.55698        -0.471615      0.170811      0.336299
V	      4.16827      6.28738      6.34639         0.082686      2.101187     -0.335669
Fe	      6.22656      6.29004     12.70080         0.142370     -0.840536      0.556608
Fe	      8.20655      8.10856      8.64632         0.622761     -0.002466     -0.312238
Co	      6.16824      8.23324     10.67297         0.423796     -1.097597      0.490300
Co	      4.08785      4.06955      4.36023        -1.619877      0.624322      0.200887
Co	      6.19219      4.09654      6.42617         0.127275      0.395142      0.579568
Ni	      2.02794      0.05065      2.13742        -0.062546      0.648982     -0.159806
Ni	      4.09031      2.02365      2.19666        -0.003503     -0.532463     -0.308690
O	      2.06761      2.14234      2.16678         0.998082      0.694262      0.107517
O	      4.03305      4.09935      2.06288        -0.224077     -0.805806      0.155101
O	      4.19044      2.15494      4.24992         1.142463      0.951421     -0.592566
O	      5.99754      4.03345      4.26178        -0.458198     -0.967256      1.147821
O	      6.16547      2.07919      6.21894         0.109083      1.285001     -1.263379
O	      8.24661      4.14186      6.60748        -1.344538     -0.033042      0.677007
O	      2.19541      4.10627      4.09857         1.302570     -0.168582     -0.529528
O	      4.06255      6.04222      4.54427         0.186833     -1.447076      0.235356
O	      4.09039      4.22163      6.49280         1.820742      0.230963      0.114627
O	      5.96214      6.17424      6.42182        -0.266473     -1.957256     -0.294462
O	      6.21377      4.11733      8.56811         0.094553     -0.043255     -2.176675
O	      8.21391      6.15343      8.53817        -0.026924     -0.504202      0.282933
O	      2.11972      6.15689      6.48642        -0.262212      0.159975      0.406923
O	      4.12730      8.10834      6.39968        -0.094991     -0.626926      0.897304
O	      4.08603      6.13247      8.36194        -0.541158     -0.209279     -0.339743
O	      6.17657      8.25257      8.72393        -0.165699      0.494029      1.171644
O	      6.14036      6.28102     10.78329         0.099000      1.793224     -0.484748
O	      8.11846      8.26620     10.56418        -1.610401     -0.313576     -0.562391
