# total energy = -158.51431183 eV
 
CRYSTAL
PRIMVEC
0.017830 6.255775 6.639340 
6.133380 0.052565 6.603253 
4.113259 4.172333 0.009850 
PRIMCOORD
27 1
Sc	     10.20936      4.24469      6.62168        -0.293851      0.554762     -0.527898
Ti	      8.31824      8.32711     12.88238         0.204638     -0.465084     -1.950886
Ti	      5.93186      2.11028      4.37262         0.851035     -0.715205      0.027884
Mn	      6.12140      6.28644      4.51727         1.104650     -0.318039     -0.146066
Cu	      4.11849      8.33712      8.86526         0.413588     -0.243298      0.238516
Cu	      2.15691      4.16217      6.55399         0.403515      0.073355     -0.489716
Ni	      6.16903      4.23158      2.28150         0.160866     -0.209814      0.124857
Ni	      2.02196      4.14828      2.28196        -0.253103      0.960965      0.077166
Ni	      6.09640      4.23183      6.69465        -0.042418     -0.169818      0.229688
O	      4.05885      4.22664      6.75973        -0.666717     -0.020419      0.008605
O	      8.21998      6.07449      8.80266        -0.036612     -0.452345      0.059389
O	      4.08222      6.47531      8.84391        -0.487974      0.750091      0.083668
O	      2.18535      2.12072      2.43206         0.340374     -0.195921      0.350396
O	      4.06842      4.00398      2.15871        -0.007663     -0.745311     -0.111297
O	      4.09848      2.12215      4.59298        -0.635845      0.022458     -0.504358
O	      6.15394      4.22528      4.46104        -0.278853      0.816054     -0.026562
O	      6.26110      2.14021      6.42713         0.331767      0.214663     -0.472248
O	      8.17438      3.96204      6.69681        -0.089339     -0.382177      0.809220
O	      2.07893      4.02112      4.37088        -0.362840     -1.248413      0.516778
O	      4.29101      6.25068      4.38252         0.722475      0.025552      0.254601
O	      6.15842      6.29520      6.42023        -0.241626      0.425555     -1.091460
O	      6.23012      4.20801      8.72767         0.620022     -0.121984     -0.436148
O	      2.05851      6.38507      6.76152        -0.310079     -0.503846      0.872325
O	      4.09441      8.38209      6.45117         0.709030      0.182004      0.945884
O	      6.04492      8.44502      9.02512        -0.937105      0.632107     -0.251924
O	      6.12352      6.48942     11.11324        -0.032487      1.188883      0.200750
O	      8.14760      8.37476     11.05699        -1.185451     -0.054775      1.208834
