# total energy = -101.73551302 eV
 
CRYSTAL
PRIMVEC
0.000020 2.110769 2.111248 
4.256896 -4.218266 4.219255 
4.257844 4.218721 -4.219750 
PRIMCOORD
16 1
Li	      0.25876     -0.00038      0.00138        -0.009167      0.000182     -0.000348
Li	      2.12342      1.89505      0.21668         0.000392     -0.017765      0.017302
Li	      2.13232      0.21910      1.89188        -0.000877      0.018711     -0.018105
Li	      3.99898      0.00422     -0.00355         0.010134      0.000752     -0.001033
Ti	      6.38842      2.12748     -0.01657        -0.007419      0.146645     -0.146833
Ti	      6.38632     -0.01265      2.12450         0.002258     -0.147232      0.147411
Ni	      4.25855      2.11070     -2.11098         0.000652      0.000069      0.000629
Ni	      4.25808     -2.10715      2.10788         0.001445      0.000519     -0.000589
O	      4.46589      2.16785     -0.05704         0.160829     -0.112817      0.112732
O	      4.46405     -0.05307      2.16472         0.157203      0.112498     -0.113120
O	      6.38802      0.00200     -0.00172        -0.000028     -0.000659      0.000347
O	      4.05291     -2.05040      4.16220        -0.155172     -0.114975      0.115031
O	      6.38639      0.12939      4.09287         0.000033      0.149799     -0.150630
O	      4.05197      4.16443     -2.05378        -0.159269      0.113998     -0.114348
O	      2.12892      0.00173     -0.00137        -0.001275     -0.000269      0.000876
O	      6.38784      1.98531     -1.98505         0.000260     -0.149454      0.150679
