# total energy = -178.97588227 eV
 
CRYSTAL
PRIMVEC
0.022980 6.367744 6.366618 
6.265919 0.044276 6.344654 
4.191165 4.244137 0.015986 
PRIMCOORD
27 1
Mn	      8.33214      6.37215      6.42591        -0.523978     -1.652944      0.509944
Mn	      4.27198      6.38217      6.35648         0.476912      0.225050     -0.114804
V	     10.41141      4.29035      6.38645        -2.869992      0.872540      0.558265
V	      4.03248      2.08861      2.14683        -5.000773     -0.675505      0.354259
V	      6.29240      8.55512     10.55556         2.083680      2.432608     -0.690497
Cr	      8.37209      6.41532     10.56068        -0.306975     -0.242994     -1.696799
Fe	      4.21000      4.30168      4.15538         0.331630      0.728167     -1.048919
Fe	      4.38084      4.28348      8.51042         0.192687      0.711673      0.677537
Co	      6.28573      8.47378      6.39271        -0.085303     -0.471702     -0.573294
O	      2.26569      2.11316      2.13539         4.161058     -0.058631      0.037994
O	      4.22371      4.12585      2.07653        -0.034260     -1.454454     -1.002352
O	      4.18730      2.21767      4.13237         1.928570      0.619902     -0.457045
O	      6.18276      4.15491      4.26996        -1.032394     -3.564597      0.038696
O	      6.18628      2.04887      6.27016        -0.950674     -1.568236     -1.521968
O	      8.54240      4.34778      6.35266         2.770635      1.102980      0.038387
O	      2.19606      4.35392      4.26993         1.113203      0.847302      1.962172
O	      4.14649      6.28728      4.27573        -1.102472     -0.930535      1.912387
O	      4.19786      4.17604      6.39090        -2.005477      0.397607     -0.147054
O	      6.38251      6.40670      6.33862        -0.401008      2.292208      0.121015
O	      6.25146      4.28755      8.46730        -0.122283      0.086824     -0.059656
O	      8.37881      6.51269      8.56193         0.407680      1.066535      1.040585
O	      1.94995      6.36766      6.28652         0.834044     -1.666389     -0.928363
O	      4.17379      8.58785      6.49928         1.936557     -0.023994      0.706876
O	      4.19586      6.43021      8.44235         0.245130      0.522459     -1.901235
O	      6.19629      8.50877      8.54334         0.201384     -0.199134      1.175083
O	      6.34584      6.49132     10.72778         0.846385      1.387415      1.400484
O	      8.36177      8.46445     10.51904        -3.093964     -0.784155     -0.391698
