# total energy = -154.66764518 eV
 
CRYSTAL
PRIMVEC
-0.019700 6.346752 6.289889 
6.166026 0.005282 6.264975 
4.104589 4.208298 0.009483 
PRIMCOORD
27 1
Mn	      4.04187      6.28999      6.27747         0.740487     -0.789756      0.628778
V	      8.13043      4.33213      8.30264        -1.033595      1.439896     -1.235708
V	      6.18408      6.30262      4.25630        -0.317980     -0.415016      2.559412
Fe	      6.18909      8.41395     10.45306        -0.200061      0.231024      0.007298
Co	      4.10574      6.37275     10.37938         0.734912     -0.938506     -0.305234
Co	      4.12482      4.18567      4.23317         0.138408      0.149342      0.919057
Cu	      8.19006      8.40799     12.48243        -0.287458     -0.258881      0.196394
Cu	      4.11132      8.46871      8.28631         0.590220      0.016763     -0.401240
Cu	      8.15602      6.32609     10.46150        -0.399772     -0.034803     -0.451500
O	      2.11296      6.28116      6.15943         0.529017      1.365463     -0.940988
O	      2.10083      2.23036      2.32554         0.942296      0.398108     -0.206728
O	      4.00412      4.13671      2.29008         0.086423     -1.442976      1.098060
O	      4.05753      2.16459      4.38120        -0.688741     -0.053874     -0.929882
O	      6.13208      4.31541      4.19157        -0.026766      0.824339     -0.052628
O	      6.27579      2.13016      6.18491         1.546799     -0.167719     -0.603367
O	      8.29920      4.21256      6.52417        -0.049542     -1.230108     -0.261477
O	      2.20815      4.08980      4.11811         0.538275     -0.502819     -0.187174
O	      4.14894      6.10761      4.26911         0.416350     -0.350575      0.457338
O	      4.10834      4.33874      6.20448         0.015063      0.521350     -1.787031
O	      6.00968      6.37036      6.13544        -0.951251     -0.117586     -2.453164
O	      6.38757      4.16953      8.45082         1.049661      0.111258      0.095903
O	      8.24050      6.15355      8.47067        -0.282146     -1.378388      1.131352
O	      3.96307      8.22179      6.13257        -1.313557     -0.044738      1.265911
O	      4.06234      6.39165      8.18522         0.014574      1.715368      0.281187
O	      6.03796      8.46711      8.48270        -1.413467     -0.033984      0.224926
O	      6.11249      6.42670     10.46480        -0.020699      1.055103      0.026253
O	      8.13599      8.60395     10.33340        -0.357450     -0.068285      0.924250
