# total energy = -163.82155284 eV
 
CRYSTAL
PRIMVEC
-0.018817 6.188600 6.302337 
6.129041 0.007675 6.276038 
4.124212 4.146676 -0.033262 
PRIMCOORD
27 1
Ti	      3.98877      3.99932      4.15852         0.115138     -0.793617      0.744298
V	      6.19820      4.05032      6.21870        -0.289095     -1.664831     -2.302803
V	      3.94781      6.23977      6.25270        -2.602203     -0.008504     -0.413561
Cr	      6.15950      6.24023      8.39236         0.597702      2.514421     -0.157891
Co	      4.07613      6.19538     10.47422        -0.237077      0.183021      0.298873
Co	      8.21927      4.16666      8.34139         0.647045      0.414025      0.314377
Ni	      4.09281      8.27821      8.32362        -0.132676      0.520659     -0.075311
Ni	      0.01597      2.08894      2.12576        -0.038894     -0.696349     -0.396885
Ni	      4.11937      8.28274      4.19371         0.367011      0.047203      0.599412
O	      2.06079      2.24055      2.07115         0.338584      1.644573     -0.058170
O	      4.06741      4.18228      2.16529        -1.214912     -0.236268      0.687505
O	      4.07454      2.08631      4.17605         0.181744     -0.591922     -1.358258
O	      6.18420      4.13100      4.27989         0.579909     -0.042516      2.180753
O	      6.10727      2.25329      6.34553         0.140923      2.433069      0.709140
O	      8.11484      4.20304      6.35705        -1.238881     -0.224708      0.468321
O	      2.10488      4.12318      4.05736        -0.472253     -0.065046     -1.873562
O	      4.11278      6.11264      4.24455        -0.002744      0.395798      0.842556
O	      4.11979      4.16888      6.11553         1.392846      1.195521     -0.552280
O	      6.00947      6.03124      6.36571        -0.535130     -0.897169      1.662687
O	      6.27043      4.16610      8.33952         0.414299      0.361589      0.020094
O	      8.17740      6.13859      8.38192        -0.000512     -1.888991     -0.018815
O	      2.17115      6.17708      6.28923         2.762327      0.100396      0.029669
O	      4.14916      8.14040      6.23307        -0.242998     -1.745967      0.246160
O	      4.12039      6.21469      8.28941         1.031079      0.599713      0.139961
O	      6.11452      8.19017      8.36744        -0.705548     -2.104736      0.028876
O	      6.02489      6.18921     10.41060        -1.450571     -0.986287     -1.579343
O	      8.24282      8.50873     10.45572         0.594886      1.536926     -0.185802
