# total energy = -198.93607004 eV
 
CRYSTAL
PRIMVEC
-0.014798 6.401128 6.239269 
6.396200 -0.022331 6.246635 
4.255927 4.264275 -0.006124 
PRIMCOORD
27 1
Ti	      4.39008      6.35720     10.42552         1.198350      1.666057      0.330055
Ti	      6.33325      2.10936      8.15807        -1.004348      0.279763     -0.648949
Ti	      6.40494      6.41046      4.24479         0.532686      0.039378      1.257169
Mn	      2.19872      8.45237      6.26487         0.370406     -0.465833      0.119380
Mn	      8.43522      4.32130      8.24102        -0.396561      0.899320      0.470907
V	      8.44661      8.51437      8.28102        -1.184467     -0.920953     -1.625873
Cr	      4.22562      6.41525      6.27620         0.522075      0.424873      0.313873
Cr	      4.27243      4.25014      4.18509        -0.157351     -0.232757     -0.093391
Fe	      6.37440      2.12734      4.17342        -0.754084     -0.609205     -0.119679
O	      1.91882      2.15678      2.20444        -0.222509      1.313524     -1.097347
O	      4.22317      4.41258      2.16613        -1.758601      0.415208      1.098867
O	      4.14574      2.12677      4.13070         0.871439     -0.216828     -0.012447
O	      6.36479      4.34846      4.14344        -0.320266     -0.650609     -0.038800
O	      6.36515      2.09663      6.31448         1.853902     -0.042604     -0.610037
O	      8.46638      4.27743      6.06811         0.274941     -1.835534      0.476361
O	      2.24655      4.09578      4.16391         0.843201     -0.673405     -1.112542
O	      4.36597      6.26914      4.20792         0.567979     -0.722799      0.652326
O	      4.28179      4.35172      6.21315        -0.284885      1.189252      1.815590
O	      6.31682      6.37156      6.12848        -1.671116      0.264899     -1.052845
O	      6.29095      4.07003      8.36453        -0.627269     -0.497093     -0.040289
O	      8.62017      6.45301      8.35745         0.849238      1.106540     -0.099956
O	      2.23394      6.37505      6.21103         1.822269      1.928700      0.145422
O	      4.27895      8.41458      6.25341        -1.871297     -1.644744      0.056632
O	      4.27919      6.31109      8.34206        -0.041688     -2.503664     -0.510468
O	      6.50319      8.49255      8.36345         3.524727      0.052728      1.251054
O	      6.24373      6.42088     10.40850        -1.585613      1.780858      0.011762
O	      8.48622      8.71812     10.35395        -1.351160     -0.345073     -0.936777
