# total energy = -161.45443329 eV
 
CRYSTAL
PRIMVEC
-0.010029 6.273269 6.101197 
6.521462 -0.016323 6.108598 
4.315918 4.156239 0.019548 
PRIMCOORD
27 1
Ti	      6.48711      6.29335     12.08553        -0.508361     -0.156885     -0.605371
Ti	      6.44950      6.27178      4.26455        -0.542825      0.088072      0.976337
Mn	      4.37851      8.32429      8.14409        -0.150654     -1.216533     -0.828958
Cr	      4.40757      4.20816      4.13717         0.147505      0.852715      1.592773
Co	      4.46651      4.25125      7.99702         1.807446      0.306525     -0.595741
Cu	      2.21951      6.29271      8.05994         0.707698      0.195841     -0.237022
Cu	      6.49090      8.27759     10.17296        -0.120184     -0.375097      0.554442
Cu	      8.67538      4.18984      8.14944        -0.393004      0.114803     -0.811193
Cu	      8.63670      6.24880     10.17486         0.271276      0.049477     -0.116975
O	      8.66950      6.09028      8.25099        -0.025540      0.126501      1.193536
O	      8.51190      8.21890      9.93022        -1.038969     -1.094714     -0.795647
O	      2.39504      2.29941      2.10388         0.851529     -0.051637      0.209675
O	      4.58686      4.03451      2.09012         0.365747     -0.318494      0.226826
O	      4.30753      2.17354      4.01685         0.583469      0.953573     -0.511064
O	      6.44936      4.32722      4.07403        -0.842130     -0.551108     -1.087148
O	      6.54401      1.94590      6.04441        -0.243313     -0.591286     -1.370515
O	      8.81914      4.15290      6.28067         0.918844      0.314759      1.037333
O	      2.36253      4.17929      3.96486         0.653998      0.622207     -0.493199
O	      4.55775      6.22275      4.07975         0.445169     -1.221604      0.268814
O	      4.27819      4.19651      6.16387        -0.204247     -0.182381     -0.305099
O	      6.56399      6.30447      6.04343        -0.164848      0.039274     -0.419638
O	      6.34064      4.15157      8.13560        -1.503043      0.071671      0.014618
O	      2.00884      6.30017      6.03331        -0.963135     -0.300604     -0.138060
O	      4.35769      8.42826      6.26978         0.157787      0.638971      0.939350
O	      4.16369      6.36903      8.12513        -1.400163     -0.166926     -0.068404
O	      6.28758      8.21035      8.24463         0.395646      0.767009      1.093142
O	      6.30292      6.05283     10.29327         0.794303      1.085872      0.277188
