# total energy = -185.39150294 eV
 
CRYSTAL
PRIMVEC
-0.042712 6.271380 6.554184 
6.353699 0.029413 6.480936 
4.264037 4.161133 -0.008990 
PRIMCOORD
27 1
Sc	      2.07987      2.20778      4.37183        -0.219459      0.040657     -0.194851
Sc	      8.50246      6.24597     10.71574         0.899980     -0.080410      0.918461
Sc	      4.26130      6.17112      6.55669        -0.438824      1.668465     -0.516067
Ti	     10.48054      4.19010      6.53181        -0.487422     -0.058679      1.148727
Cr	      4.23971      2.09702      2.15385        -0.757942      1.302252     -1.368239
Cr	      8.49259     10.39038     10.85723        -0.212455     -1.273556      1.943226
Fe	      2.05543      6.27478      8.64432        -0.969953      0.394402     -0.109296
Fe	      6.37078      2.14795      4.39542        -0.293381      0.613016      0.553327
Cu	      6.48244      6.19475      8.52849         0.948955     -0.432694     -0.994230
O	      2.20252      1.99437      2.21538         2.033558     -0.976838      0.716560
O	      4.34564      4.12428      2.00984         0.777614     -1.231280     -0.674104
O	      4.28373      2.01018      4.20129         0.040620     -1.256076     -1.165589
O	      6.49257      4.13656      4.19835         1.068868      0.066618     -0.884048
O	      6.34793      1.97948      6.39519         0.093741     -0.423092     -0.538831
O	      8.61854      4.16200      6.32582         0.886484      0.235773     -1.872362
O	      2.14097      4.19333      4.32295        -0.085785      0.498781     -0.123708
O	      4.22696      6.29529      4.44094         0.070564     -0.189352      1.080966
O	      4.22188      4.22284      6.53278         0.109319     -1.304461     -0.116316
O	      6.29931      6.27912      6.39289        -0.630876     -0.114240      1.162170
O	      6.35697      4.29060      8.65732         0.064606      1.119761     -0.096808
O	      8.46262      6.28175      8.72976        -1.320495     -0.093950     -0.588411
O	      2.05324      6.26125      6.60886        -0.050810     -0.041148      0.089991
O	      4.20657      8.44369      6.70749        -0.018964     -0.303945      1.978815
O	      4.15057      6.33859      8.77282         0.428917      0.487513      0.192436
O	      6.21564      8.35262      8.83911        -1.223899     -0.195423      0.411574
O	      6.28717      6.30758     11.05148        -0.141860      0.596623     -0.660448
O	      8.32970      8.39819     10.87028        -0.571101      0.951285     -0.292944
