# total energy = -166.06721750 eV
 
CRYSTAL
PRIMVEC
-0.006658 6.183940 6.230405 
6.348096 0.010886 6.213035 
4.250963 4.129653 -0.011306 
PRIMCOORD
27 1
Sc	     10.46066      4.14927      6.25767         1.828132      0.206484      0.074548
Mn	      6.39365      6.12111      4.13787         0.014102     -0.393168      0.657564
Cr	      6.34435      2.14832      4.12139        -0.509056      1.408649      0.552157
Cr	      6.33024      2.09092      8.26570         0.839489     -0.392859     -0.439017
Cr	     10.54009      8.28397     10.35186         0.081614      0.341152     -0.124816
Cr	      2.21976      4.09905      6.25363         0.233673      0.015182      0.218086
Cu	      4.22538      8.14521      8.27809        -0.110924     -0.397702     -0.056308
Cu	      4.23978      4.19473      8.27788         0.136548      0.312159     -0.484255
Ni	      2.13678      6.17237      4.11932         0.234608     -0.496836      0.202164
O	      4.03942      4.12386      6.28848        -0.604545     -0.183908      1.000246
O	      4.24223      6.18836      8.28436        -0.062220      0.286387     -0.044117
O	      1.98165      2.08115      2.22931        -0.803652      0.062668      0.642440
O	      4.22654      4.20361      2.07044        -0.150447      0.723213     -0.306112
O	      4.34376      2.06583      3.97918         0.304515     -0.284451     -1.065083
O	      6.34445      4.15736      4.18546         0.159687     -0.675899     -0.229011
O	      6.37616      2.08408      6.17881        -0.206082     -0.705804     -0.111675
O	      8.50877      4.12676      6.21742        -1.952023      0.083806     -0.096765
O	      1.99888      4.04282      4.25350        -0.677350     -0.140060      0.616538
O	      4.19905      6.28514      4.06423         0.176261      0.596539     -0.891051
O	      6.36716      6.31838      6.07967         0.200313      0.944082     -0.813646
O	      6.27777      4.10404      8.38291        -1.109198     -1.280383      0.760347
O	      8.59875      6.27546      8.33861         1.308558      0.780599      0.681006
O	      2.07531      5.99019      6.13754        -0.371561     -1.017188     -0.935562
O	      4.36652      8.20823      6.22242         0.799550      0.380424      0.375508
O	      6.48700      8.25553      8.28062         0.005000      0.007979      0.163188
O	      6.45291      6.21216     10.35758         0.505487      0.222079      0.602674
O	      8.47871      8.24894     10.30474        -0.270480     -0.403146     -0.949050
