# total energy = -157.62563977 eV
 
CRYSTAL
PRIMVEC
-0.001292 6.256804 6.252376 
6.306260 0.020448 6.230550 
4.208407 4.160822 0.009526 
PRIMCOORD
27 1
Mn	      2.15961      2.04436      4.13695         0.641994     -1.444248     -0.248506
Mn	      6.30248      8.34279      6.31648        -0.349489     -0.006249      1.558761
Mn	      8.39152      8.35381      8.35051        -0.568799      0.559063     -0.129806
Cr	      4.23210      6.26510      6.26355        -0.232584      0.380600      2.764826
Fe	      8.23853      6.30293     10.41122        -0.951228      1.195595      0.289570
Co	      6.30869      2.11674      8.27621         0.221539     -0.395229     -3.481407
Co	      8.46450      4.18193      8.13578         0.099712     -0.117246     -3.222732
Cu	     10.44796      8.39737     10.45425        -0.890656      1.275695      0.077552
Ni	      4.27334      4.11454      4.10276         0.975252     -1.133342      0.020283
O	      8.40942      4.15961      6.38251         0.134011      0.024659      3.282708
O	      1.96645      2.15001      2.19008        -0.767099      1.001340      0.508316
O	      4.16345      4.32665      2.10226        -1.033142      1.157363      0.654076
O	      4.04707      2.09021      4.11613        -0.479937      0.677657      0.065554
O	      6.26443      4.34196      4.17118        -0.647007      0.903230     -0.264653
O	      6.29567      2.11887      6.38400         0.070602      0.038549      3.357065
O	      2.22954      4.13855      4.08031        -0.468019      0.169939      0.159195
O	      4.30433      6.30434      4.16933        -0.118405     -0.158629     -0.438730
O	      4.06212      4.22709      6.32675        -0.492138      0.665245     -0.206092
O	      6.24743      6.28929      6.08993        -0.589293      1.378981     -0.648380
O	      6.20537      4.07981      8.37260         0.377085     -0.878303      0.828334
O	      8.55068      6.31929      8.39294         1.001537     -0.607312      0.685979
O	      2.22909      6.26095      6.12298         0.884553     -1.738140     -0.656846
O	      4.39286      8.25954      6.26528         0.698473     -0.754142     -0.997701
O	      4.24498      6.09618      8.22535         0.004197     -0.656287     -1.676746
O	      6.46252      8.31606      8.31736         0.839470      0.028605     -1.644474
O	      6.36625      6.16275     10.40657         0.214788     -0.956549     -0.048300
O	      8.30637      8.28083     10.25572         1.424585     -0.610845     -0.587846
