# total energy = -102.54464767 eV
 
CRYSTAL
PRIMVEC
4.097481 -0.000517 -0.000955 
0.000617 4.163783 -4.165056 
0.000546 6.439849 2.275548 
PRIMCOORD
16 1
Li	      4.09495      4.35582     -3.97241         0.002450      0.018037      0.014995
Li	      2.04890      2.07260      0.09674         0.001120     -0.017063      0.029374
Li	      2.04914      4.27788     -2.09273         0.001295      0.016894     -0.027567
Li	      0.00470      6.14991     -2.18086        -0.006031     -0.013047     -0.022070
Ti	      1.86463      6.39282      0.16023        -0.220965     -0.013673      0.010104
Ti	      2.23378      8.45598     -1.94025         0.218198      0.001373      0.003674
Ni	      0.00083      4.14481     -0.02338        -0.018546      0.094817      0.067639
Ni	      0.00110      2.20237     -1.96869        -0.011320     -0.075752     -0.082095
O	      4.09767      2.16185      0.01416        -0.001483     -0.155341      0.143964
O	      2.04697      4.39950      0.23015         0.027340      0.096616      0.096655
O	      4.09797      4.18531     -2.00907        -0.001588      0.135658     -0.125838
O	      2.05053      6.50985     -1.82417         0.001480      0.123593      0.104240
O	      0.01538      6.39414      0.14420         0.261304     -0.003061      0.002809
O	      2.04863      8.38786      0.05392         0.015412     -0.114943     -0.105591
O	      4.08351      8.47306     -1.94272        -0.270323     -0.010074      0.008827
O	      2.04781      6.27545      2.10615         0.001655     -0.084034     -0.119119
