# total energy = -155.92206136 eV
 
CRYSTAL
PRIMVEC
-0.006703 6.247288 6.081735 
6.316668 -0.001242 6.076788 
4.230090 4.180315 -0.020140 
PRIMCOORD
27 1
Mn	      4.22298      4.19258      0.03233        -0.809094      0.618748      0.001979
Mn	      2.11582      2.06862      0.05712        -0.318414      0.421558      1.135914
V	      6.35651      8.34953      6.17599         1.118626     -1.135847      3.325980
Fe	      6.28722      6.18372      3.92179         0.258367      0.382408     -0.970015
Fe	      4.31630      4.29298      8.17176        -0.534723     -0.187356     -0.066809
Co	      4.21238      2.08565      6.06053         0.268619     -0.424453     -0.733755
Co	      0.04484      4.17286      4.04491         0.271159     -0.653015     -0.712262
Cu	      2.18945      6.21273      3.94240         0.135499     -0.445734     -0.375129
Ni	      6.32142      4.21426      6.08530         0.095744     -0.109346     -0.068978
O	      2.11232      2.07833      1.99270         0.103896     -0.009744     -0.800506
O	      4.19523      4.15661      1.86782        -0.049544      0.019593     -0.460777
O	      4.10925      2.09615      4.14380        -0.886547     -0.248819      1.922824
O	      6.27641      4.25969      4.13482         0.176622      0.219382      0.400764
O	      6.28865      1.95803      5.99992         0.063315     -0.324000      0.097272
O	      8.55307      4.10402      6.03947         0.373159     -0.198680      0.092708
O	      1.99584      4.13244      4.15543        -0.780004      0.381235      0.345476
O	      4.22380      6.41020      4.04612        -0.064567      1.700834     -0.121381
O	      4.11756      4.17492      6.08694        -1.100198     -0.426019      0.531984
O	      6.35545      6.33956      5.99365         0.685068      1.105858     -0.533836
O	      6.28367      4.18089      8.12898        -1.431566      0.430477      1.042538
O	      8.42727      6.37164      7.90376         0.196133      1.037621     -0.034605
O	      1.94368      6.21214      6.15566        -0.263798     -0.285848     -1.042323
O	      4.32411      8.44904      5.97186         0.302322      0.523948     -0.705350
O	      4.20061      6.14560      8.11212         0.147198     -0.596298      0.163097
O	      6.33380      8.30949      7.96508         0.756792      0.276917     -2.849598
O	      6.48020      6.11583     10.21114         0.506036     -1.157842      0.539258
O	      8.61809      8.29266     10.19224         0.779897     -0.915577     -0.124469
