# total energy = -160.73730096 eV
 
CRYSTAL
PRIMVEC
0.020508 6.296539 6.089433 
6.502814 0.016204 6.093922 
4.353191 4.218381 -0.007646 
PRIMCOORD
27 1
Ti	      8.81527     10.41375     10.18121         1.335765     -1.160418      1.382090
V	      2.04317      2.34750      4.03795        -1.693793      2.815775      0.147403
V	      6.50263      4.15621      6.18308         0.625773     -0.505122      2.415604
Cr	      4.32724      2.15916      1.98230        -1.338021      1.385146     -2.493800
Co	      6.48160     10.50666      8.05164        -0.354342      0.789992     -3.107383
Cu	      6.51027      2.09782      4.08559         0.441708     -0.543160      0.565405
Cu	      4.37565      4.17710      8.08313         0.682650     -0.408720      0.350181
Ni	      4.35866      2.12632      6.08924         0.021690     -0.425425      0.309026
Ni	      6.61585      6.36281      8.07334         0.470978     -0.581396      0.162013
O	      2.27987      2.09864      2.19643         1.346915     -1.448414     -0.451683
O	      4.48385      4.11538      2.03626         1.072809     -1.684212     -0.040676
O	      4.07480      1.98376      4.03562         0.546796     -0.481710     -0.567454
O	      6.60828      4.17520      4.03324         0.170011     -0.861891     -0.400076
O	      6.43091      2.23786      6.03593        -0.281775      1.345039     -1.237809
O	      8.55422      4.21853      5.97177        -1.473536      0.645346     -0.710346
O	      2.18319      4.07107      4.06621        -0.530108     -2.021350     -0.026312
O	      4.64769      6.30751      4.01656         1.176900      0.347468      0.087171
O	      4.55486      4.18898      6.10595         1.054899     -0.487356      1.405087
O	      6.59092      6.22448      5.92906         0.759229     -1.483341      0.652845
O	      6.70756      4.31407      7.94480        -0.810089      0.321523     -2.404804
O	      8.64838      6.42409      8.11167        -0.812173      1.851625     -1.049364
O	      2.15220      6.29509      6.23641        -0.074483     -0.028956      3.478093
O	      4.34041      8.38876      6.15495        -0.033700      0.095662      2.504579
O	      4.27329      6.31101      8.17171        -0.501679     -0.114627      0.052745
O	      6.32783      8.36027      8.21344        -0.236418      0.652824      1.033134
O	      6.36126      6.39361     10.13016        -0.750605      1.461905     -0.485327
O	      8.81372      8.52969     10.05196        -0.815401      0.523793     -1.570341
