# total energy = -172.66587255 eV
 
CRYSTAL
PRIMVEC
-0.013978 6.426108 6.134714 
6.435736 0.019486 6.099932 
4.293922 4.265083 0.009244 
PRIMCOORD
27 1
Sc	      2.11754      6.41398      8.06252         0.015904     -0.298893     -0.205237
V	      4.44946      4.16985      8.11123         1.540416      0.376126      0.435857
Cr	      4.30223      8.55109      8.15085         0.476465     -0.275461     -1.773340
Cr	      6.45500      6.42753      4.12500         0.486222      0.399401      1.408107
Cr	      4.25280      4.26461      4.13743        -0.660949     -0.791537      0.324789
Fe	      6.45683      2.01310      4.23517         0.097648      0.446653      0.131295
Fe	      4.32384      6.55082      6.07866         0.185179     -0.094342      0.754239
Co	      8.51332      6.41825     10.20126        -1.271718      0.036264      0.496227
Cu	      6.51354      2.15631      7.99890        -0.392259      0.661572     -0.883551
O	      8.55970      4.27833      6.15521        -0.020532     -0.052090     -0.020401
O	      2.26931      2.08103      2.10796         0.060005     -0.301550      1.356889
O	      4.33316      4.14645      2.12571         0.362924      0.189788      1.056059
O	      4.24885      2.23767      4.06877        -0.478108      0.774129     -0.814728
O	      6.28491      4.31800      4.08489        -1.213101      0.591917     -0.287929
O	      6.46118      2.13936      6.10198         0.072654     -0.305305      0.089117
O	      2.26165      4.20011      4.05446         1.830597     -0.530212      0.126904
O	      4.35571      6.30350      3.99861         0.138794     -0.612106      0.218643
O	      4.20806      4.38583      6.28108         0.073857      1.108530     -1.243758
O	      6.28461      6.42363      6.06872        -0.973627      0.208395     -2.047289
O	      6.18031      4.33263      8.19785        -1.191685     -1.138110     -0.212404
O	      8.51692      6.64133      8.20252         0.905871      0.069265      1.004137
O	      2.29784      6.41555      6.02803         1.226132      0.229801     -1.713654
O	      4.30704      8.49636      6.18274         0.058116     -0.963731      1.761902
O	      4.24334      6.43315      8.12117        -0.730171      0.458600     -1.030688
O	      6.34992      8.59783      8.26979        -0.829261      0.316558      1.092183
O	      6.47595      6.52814     10.21628         0.992644      0.458134      0.394622
O	      8.43685      8.61774      9.97401        -0.762016     -0.961797     -0.417992
