# total energy = -176.12705840 eV
 
CRYSTAL
PRIMVEC
-0.003247 6.303141 6.236519 
6.563833 0.044091 6.190087 
4.401117 4.195873 0.003886 
PRIMCOORD
27 1
Sc	      0.01719      6.29708      6.23844        -0.368143      0.017026      1.123692
Sc	      8.82805      8.29833      8.30415         0.411155      1.127285      0.721470
Ti	      6.49286      4.29036      2.20872        -1.522917      0.861707      0.267051
Mn	      6.56228      4.28116      6.21635         0.178124      0.280378      0.688153
V	      4.46750      0.17176      4.08067         1.312826      2.583719     -1.030619
Fe	      2.27227      8.38926      6.23714         0.203376      0.161549      0.209514
Co	      6.54265      8.42311     10.32046        -0.235030     -0.152209     -0.146159
Co	      4.41176      6.32085      6.10472        -0.128174      0.391443     -2.111383
Ni	      2.21315      4.11070      6.13661         0.006351     -0.276449      0.192883
O	      2.22918      1.97993      1.98290        -0.233416     -0.900773     -0.518722
O	      4.61027      4.18259      2.07550         1.547988      0.337936     -0.282470
O	      4.42791      1.95219      4.16115         0.736171     -2.470704     -0.083854
O	      6.75408      4.27253      4.16190         0.708868     -1.248581      0.372108
O	      6.72285      2.18689      6.12462         0.424695      0.470716     -1.343733
O	      8.88021      4.17541      6.11190        -0.743917     -0.601899     -1.451491
O	      2.16519      4.18222      4.20232        -0.003420     -0.062672      0.150351
O	      4.32381      6.31541      4.30496         0.095630      0.102454      2.680756
O	      4.32782      4.35589      6.17037         0.662912      0.971148      0.587998
O	      6.49051      6.23131      6.24040        -0.861474     -0.366108      0.087131
O	      6.51539      4.21911      8.11206        -0.611938      0.057081     -1.629692
O	      8.76260      6.36394      8.25727         0.059953     -1.733972      0.039651
O	      2.15067      6.35636      6.35440         0.225024     -0.491975      0.115668
O	      4.32365      8.34011      6.20774         0.287152     -0.677608      0.001586
O	      4.22359      6.31544      8.33139        -0.323888     -0.480150      0.851471
O	      6.63201      8.56016      8.28238         0.739452      0.279170      0.416875
O	      6.40839      6.31181     10.34194        -1.912108      1.532327      0.210084
O	      8.69330      8.64300     10.39678        -0.655252      0.289162     -0.118316
