# total energy = -158.56993436 eV
 
CRYSTAL
PRIMVEC
-0.006831 6.268923 6.361666 
6.190496 -0.030025 6.385052 
4.098536 4.165774 0.008697 
PRIMCOORD
27 1
Sc	      6.08203      4.28487      6.42558         0.155114      0.333750      0.869795
Ti	      4.07950     10.31880      6.44377        -0.240307     -0.987027      1.308212
Mn	      6.20287      2.09280      8.51627         0.171928     -0.164416     -0.326973
Fe	      4.11118      6.26127     10.46584         0.008107      0.390979     -0.553113
Co	      2.02889      2.07555      0.02166         1.291822     -0.319563      1.128862
Co	      6.13284      8.32799     10.29758        -0.574215     -0.196629     -1.255239
Cu	      4.09788      4.13052      4.27699        -0.287108     -0.078179     -0.393040
Cu	      2.07879      6.25660      4.21086        -0.046977     -0.065258     -0.489319
Ni	      6.22319      8.23465      6.41496        -0.299608     -0.613356      0.781623
O	      4.09652      6.23081      4.04004        -0.919219     -1.229801      0.094731
O	      1.94756      2.08650      1.96336        -0.721871      0.206937     -1.663205
O	      4.10038      4.30127      1.94735         0.042150      0.911305      0.178392
O	      4.17367      1.99354      4.26687         1.809636      0.021449     -0.241251
O	      6.13541      4.05765      4.27832        -0.023743     -1.439098      0.217655
O	      6.26709      2.01991      6.49375         0.888780      0.220599      0.078914
O	      8.29172      4.01413      6.25866        -0.233701     -0.649049     -1.009302
O	      2.15126      4.25229      4.35476         1.221799      0.856248      0.549225
O	      4.10477      4.17998      6.44580        -0.455734      0.086049     -1.388362
O	      6.15885      6.24708      6.40623        -0.028794      1.094851     -0.149398
O	      6.21669      3.99100      8.49351        -0.048149     -1.431402     -0.040768
O	      8.37498      6.21811      8.61675         0.721257      0.325281      1.014261
O	      1.96062      6.37755      6.26473        -0.447292      0.081769     -1.118421
O	      4.02005      8.43753      6.39823        -0.722704      1.090574     -0.109530
O	      4.13083      6.21542      8.63622        -0.006162     -0.035887      0.696249
O	      6.15848      8.33347      8.52595         0.164722     -0.059923      1.260112
O	      6.19339      6.31584     10.73045        -0.199850      1.473577      0.163902
O	      8.15497      8.33190     10.80214        -1.219880      0.176220      0.395991
