# total energy = -174.36639945 eV
 
CRYSTAL
PRIMVEC
6.080561 -0.014371 0.018509 
1.374122 7.681355 -0.064871 
1.683130 2.323134 7.304165 
PRIMCOORD
27 1
Sc	      7.67105      7.33075      7.26049         0.732271     -1.535601     -0.154015
Sc	      6.25935      1.52954      4.76158         0.162597     -0.512427      0.313041
Ti	      4.47651      2.51899      7.21085        -0.608740      0.449080     -1.592234
V	      1.60246      5.85416      2.43990         1.948490     -3.466702      0.015219
Cr	      6.06580      6.62245      4.90646        -2.011042     -1.161636      1.826053
Fe	      4.51291      5.79725      2.44270        -0.738929     -1.075109      0.667471
Co	      7.69012      2.40473      7.31341         0.389666      0.519446     -0.211558
Cu	      4.58155      0.77086      2.46248        -0.603059      1.057238      0.313087
Ni	      1.62826      4.11028      4.84450         0.595372     -0.114568      0.100636
O	      6.16515      8.32282      6.12285         0.969304     -0.468648     -0.564070
O	      2.96077      8.42814      6.08121        -0.671907      1.752174      1.027084
O	      7.64445      7.32871      3.68137        -1.590482     -0.064762      0.039110
O	      4.76890      7.48515      3.60031         1.171474     -0.558367     -0.376010
O	      3.05339      6.78540      1.24818        -0.497197     -0.240949      0.388337
O	      6.01187      6.78087      1.35958         0.390837      0.316639     -0.066723
O	      7.57394      5.74296      6.04334        -1.229685      0.434898     -1.243623
O	      4.66292      5.84545      5.96939         1.895442      1.139615     -1.541073
O	      3.01101      5.05316      3.52432        -1.613113      1.424565     -1.536324
O	      6.18020      5.07536      3.62190         1.035303      1.514222     -0.418491
O	      4.58265      4.29071      1.27257         0.141948      1.187848      0.451293
O	      1.45445      4.47095      1.26061        -0.220370      2.646670      1.711475
O	      3.16903      3.19278      6.10497        -0.934388     -0.465988      1.197161
O	      6.03039      3.11151      6.15561         0.850658     -0.722757      0.446682
O	      4.64286      2.25516      3.59651         0.061096     -0.880801     -0.765634
O	      1.58052      2.46039      3.68168         0.339457      0.964575      0.239784
O	      5.90436      1.48859      1.34229        -0.498623     -1.618233     -0.913736
O	      2.87870      1.60153      1.03084         0.533620     -0.520423      0.647057
