# total energy = -164.63052584 eV
 
CRYSTAL
PRIMVEC
5.887369 -0.002384 0.005594 
1.563038 7.789073 0.149848 
1.448549 2.728386 7.302310 
PRIMCOORD
27 1
Sc	      7.42797      9.56468      4.92716         0.635381     -0.961317      1.039262
Ti	      6.05870      5.17961      0.13453         1.022048      0.386511     -1.081980
V	      1.53550      4.51690      4.97399         1.924688      1.758150      0.544682
Cr	      2.96244      3.54576      2.49230        -0.814735      0.687216     -0.777252
Fe	      4.34408      7.70844      0.18094         0.653655      0.022062     -1.182887
Co	      5.91041      3.49375      2.47794         0.232464      0.400457     -0.328539
Cu	      5.86116      5.32371      7.34786        -0.006143      0.063379      0.104769
Cu	      5.92780      8.64583      2.60789         0.142018     -1.093098      0.349805
Ni	      4.42510      4.52637      4.96889        -0.339622      0.668972     -0.044956
O	      3.04755      1.73852      1.34068         1.084854      0.101837     -0.118432
O	      5.66968      1.73435      1.38723        -0.708564      1.584818      0.682063
O	      1.48133      4.27659      1.26290        -1.013542     -1.278739      1.708547
O	      4.43066      4.25345      1.21850         1.198400     -1.219395      1.172111
O	      5.89224      6.69672      1.17681        -0.968127      0.667335     -0.370046
O	      3.03860      6.99080      1.26711        -0.704416     -0.509344      1.008728
O	      1.56086      2.82304      3.77754        -1.312857      1.408303     -0.685506
O	      4.39151      2.88685      3.74186         1.068495      0.858470     -1.234972
O	      6.09572      5.15108      3.87442        -0.092137     -1.690536      0.034081
O	      2.91519      5.18471      3.70785        -1.019627     -1.752929      1.539529
O	      4.58806      7.90395      3.68414         0.735245      0.208792     -0.712988
O	      7.31378      7.96292      3.68858        -0.933712      0.248531     -0.913341
O	      5.89892      3.59367      6.16030        -0.197688      0.652088     -0.951730
O	      2.86506      3.66757      6.11699         0.014543      0.730065     -1.074489
O	      4.50254      6.11501      6.17264         0.725678     -0.961502      0.248270
O	      7.34293      6.11422      6.22637        -0.838180     -1.479623     -0.484291
O	      2.85893      8.58760      6.19304        -1.384565     -0.269393      0.748689
O	      6.03158      8.81750      6.26857         0.896444      0.768892      0.780873
