# total energy = -102.62792849 eV
 
CRYSTAL
PRIMVEC
0.000024 2.089709 2.089863 
8.330708 -2.139753 2.139896 
-0.007017 4.264857 -4.265033 
PRIMCOORD
16 1
Li	      8.30631     -1.95942      1.96226         0.006214     -0.013654      0.013577
Li	      1.85849      2.12236     -0.03159         0.011441      0.005454     -0.004154
Li	      4.21337      4.21161     -0.03776        -0.026012     -0.003623      0.007010
Li	      8.31225     -0.18906      0.19308         0.001206      0.013601     -0.016205
Ti	      1.87187      4.19719     -2.10434        -0.604885     -0.095557      0.096229
Ti	      4.21171      0.03307     -0.02319         0.099466      0.086938     -0.081837
Ni	      6.39725     -0.10130      2.19391        -0.122620      0.041136     -0.040279
Ni	      6.39952      2.15901     -0.06653         0.011809     -0.045306      0.045402
O	      4.11739      1.99414      0.09983        -0.035622     -0.113585      0.111486
O	      4.16615      0.09991      1.99291        -0.067944      0.051677     -0.052499
O	      6.13397      0.01979     -0.01669        -0.183239     -0.009394      0.007043
O	      6.17858      2.09681     -2.09428        -0.027027      0.031534     -0.031616
O	     -0.00130      2.12188     -0.02882         0.195902     -0.007954      0.007866
O	      2.15135      2.26364     -2.26066        -0.003597      0.118334     -0.119312
O	      0.09082      4.24922     -2.15634         0.683179     -0.023260      0.023315
O	      2.19046     -0.11839      0.12203         0.061729     -0.036342      0.033974
