# total energy = -103.52879064 eV
 
CRYSTAL
PRIMVEC
-0.000194 2.087899 2.087830 
8.352178 -2.110420 2.109628 
-0.000094 4.219933 -4.219804 
PRIMCOORD
16 1
Li	      0.00616      2.08608      2.08513         0.031010      0.002860      0.000829
Li	      2.08800      2.09958     -0.01415        -0.004776      0.002043      0.006957
Li	      4.16873      4.19493     -0.02624        -0.031859      0.001476      0.004561
Li	      2.08727      4.20922     -2.11800        -0.000464      0.002003     -0.006356
Ti	      0.16048      2.11339     -2.10806         0.584100     -0.006541     -0.003043
Ti	      4.01142      0.00194      0.00115        -0.573016     -0.001508     -0.004072
Ni	      6.26262     -0.04945      2.13817        -0.001546     -0.014577      0.011739
Ni	      6.26270      2.13947     -0.05068         0.000529      0.012294     -0.014427
O	      4.18635      1.99983      0.08918        -0.078959     -0.086723      0.086471
O	      4.18586      0.09011      1.99947        -0.075434      0.088209     -0.088944
O	      6.26346      0.00113     -0.00023        -0.000594     -0.000987     -0.000288
O	      6.26212      2.11097     -2.11015         0.002855     -0.000884     -0.001630
O	      8.33881      0.09019      1.99830         0.078037      0.088213     -0.086166
O	      1.96713      2.11156     -2.10907        -0.512366      0.001745     -0.003111
O	      8.33948      2.00036      0.08843         0.075495     -0.087583      0.090078
O	      2.20593      2.08872      2.08681         0.506987     -0.000042      0.007402
