# total energy = -46.47875968 eV
 
CRYSTAL
PRIMVEC
-0.000253 2.060332 2.061133 
4.133369 -2.089191 2.089472 
4.135035 2.090042 -2.091294 
PRIMCOORD
8 1
Li	      2.06907      2.07301     -0.01821         0.001284      0.003106      0.002519
Li	      4.13444      2.05756      2.05983         0.001443      0.003769     -0.003731
Mn	      0.00172      2.06001      2.05976        -0.003420     -0.003633      0.001087
Ni	      2.06791     -0.01538      2.07428         0.000001      0.000853      0.000670
O	      6.34037      2.08542      2.03253         0.063664     -0.098427      0.101265
O	      1.93123      2.03454      2.08560        -0.062346      0.100622     -0.103343
O	      4.12807      2.18538     -0.12785        -0.097372      0.027672     -0.028528
O	      4.14355     -0.12419      2.18395         0.096747     -0.033962      0.030061
