# total energy = -91.10148497 eV
 
CRYSTAL
PRIMVEC
-0.000354 2.093725 2.092194 
5.935145 6.278674 -4.183091 
-3.977139 2.104599 -2.102252 
PRIMCOORD
16 1
Li	     -1.95206      4.22265     -2.12797        -0.023473     -0.027366      0.023329
Li	     -0.06107      6.25478     -2.07505         0.023865      0.028174     -0.022244
Li	     -1.99225      2.12261     -0.03033        -0.023825     -0.000743     -0.001388
Li	      3.95612      6.25231     -2.06824         0.024025     -0.003028     -0.000504
Mn	     -0.01062      2.12006      2.06433         0.019208     -0.018785      0.016484
Mn	      1.97464      6.25432     -4.16341        -0.021207      0.017764     -0.017058
Ni	     -0.06067      4.22043     -0.03638        -0.109266     -0.088784      0.087600
Ni	      2.02458      4.15288     -2.06374         0.109654      0.090406     -0.088130
O	      3.94964      6.27979     -4.18699         0.000416      0.000022      0.000646
O	      0.08877      6.26340     -4.17406         0.079089      0.006316      0.006664
O	      1.96096      8.37898     -4.19199        -0.000596     -0.000286      0.000174
O	     -2.10192      4.21537     -0.02743        -0.077999     -0.007385     -0.006860
O	      0.02486      4.10590     -2.01559        -0.054257      0.139711     -0.137718
O	      1.98969      6.33326     -2.14958         0.008179      0.037666     -0.037250
O	     -0.02573      2.04096      0.05044        -0.008445     -0.037803      0.036213
O	      1.93902      4.26718     -0.08479         0.054632     -0.135878      0.140043
