# total energy = -103.37740747 eV
 
CRYSTAL
PRIMVEC
0.000025 2.096055 2.096164 
4.185504 -2.099369 2.099486 
4.209177 6.321478 -6.321605 
PRIMCOORD
16 1
Li	      0.20728      0.07453     -0.07039         0.016171      0.008975     -0.009031
Li	      2.08259      2.13604     -0.03598        -0.005439     -0.015110      0.013801
Li	      3.97623      2.03029     -2.02483        -0.013175     -0.003612      0.001243
Li	      2.15967      0.05370      2.04485         0.002546     -0.002292      0.001776
Ti	      4.07999     -0.01357      0.01474        -0.299173     -0.060027      0.060290
Ti	      4.28456      6.32642     -2.13597         0.226454      0.055703     -0.058319
Ni	      6.29517      4.19028     -2.09094         0.006516      0.024430     -0.023211
Ni	      6.22752      2.07365      0.02566         0.049041      0.048862     -0.048925
O	      4.18853      4.30493     -2.20548        -0.016093      0.077460     -0.075531
O	      4.17390      2.03628      0.06336        -0.114838     -0.048204      0.048871
O	      6.42645      2.12145     -2.11760         0.068167     -0.033367      0.031193
O	      4.19942      0.09320      2.00580        -0.005320      0.089463     -0.087992
O	      1.97935      2.16111     -2.15809        -0.042472     -0.123086      0.123162
O	      4.21542      6.21991     -4.12098         0.083571     -0.108761      0.112329
O	      2.22920     -0.00431      0.00722         0.305514     -0.006395      0.006540
O	      6.17362      4.15498     -4.15145        -0.261471      0.095962     -0.096196
