# total energy = -101.79220668 eV
 
CRYSTAL
PRIMVEC
0.007561 2.147355 2.178522 
3.717799 -2.539316 2.586559 
3.649376 7.589867 -7.678559 
PRIMCOORD
16 1
Li	      3.78969      0.01688      4.33045         0.022915      0.005623     -0.003733
Li	      1.87915      1.94107      0.22470         0.013198      0.010615     -0.008390
Li	      3.30696      2.68082     -2.60944        -0.032260     -0.025179      0.021146
Li	      3.80094     -0.40392      0.43258         0.037344      0.007929     -0.011378
Ti	      5.75485      4.61564     -2.74794         0.157085      0.060465     -0.233302
Ti	      5.13474      2.51404     -0.32265        -0.782138     -0.120625      0.104690
Ni	      1.89605      0.13427      2.04629        -0.115450     -0.041599      0.032564
Ni	      3.89542      7.00404     -2.75065         0.044830      0.007780     -0.006434
O	      3.79209      4.91857     -2.82043         0.061697     -0.089929      0.073486
O	      3.43071      2.83986     -0.61425         0.718151     -0.107072      0.090677
O	      5.52556      2.60412     -2.46259        -0.081045      0.057899     -0.048536
O	      3.74750     -0.20130      2.38984         0.212689     -0.044920      0.045475
O	      5.21127      0.64050     -0.60269         0.003219      0.205544     -0.170686
O	      3.84925      6.91174     -4.79832        -0.314038      0.051704     -0.087770
O	      1.84096     -0.06111      0.08510         0.008706      0.119964     -0.120574
O	      5.91378      6.58304     -2.41432         0.045096     -0.098197      0.322764
