# total energy = -103.85306480 eV
 
CRYSTAL
PRIMVEC
2.078383 4.150512 2.078334 
2.123238 -4.195714 2.123170 
4.181832 0.000026 -4.181718 
PRIMCOORD
16 1
Li	      4.25292     -0.04489      4.14923         0.013449     -0.000361     -0.013114
Li	      4.15766     -2.11993      2.16545        -0.011910      0.000511      0.014466
Li	      6.28235     -0.04561      2.12031         0.000011      0.001170     -0.001966
Li	      6.31133     -2.12044      0.01299        -0.002063      0.001079      0.002211
Ti	      4.12413     -0.02169      0.07685        -0.111893      0.001641      0.113657
Ti	      4.26842     -2.09712     -2.14509         0.108428     -0.001607     -0.116339
Ni	      6.27489     -0.02186     -2.07395         0.009996      0.001540     -0.008680
Ni	      2.11722     -2.09719      0.00545        -0.009893      0.000027      0.007400
O	      4.20096     -2.00258     -0.08149         0.097186      0.092316     -0.037563
O	      2.19466     -0.01121      0.02573         0.164289      0.090388     -0.095068
O	      4.28260      1.95904     -0.00003         0.036405     -0.094626     -0.096360
O	      6.19746     -2.10782     -2.09419        -0.161151     -0.092714      0.094498
O	      4.17504     -0.03257      2.00642         0.095737     -0.091126     -0.166620
O	      4.19130     -0.11623     -1.98719        -0.096871     -0.093681      0.039578
O	      6.29532      2.06403     -1.99656        -0.093389      0.092183      0.166605
O	      6.18808      0.07261      0.00974        -0.038331      0.093259      0.097295
