# total energy = -101.49817223 eV
 
CRYSTAL
PRIMVEC
0.000214 -0.000127 3.828570 
4.700535 0.000184 -0.000186 
-0.000187 8.413783 0.000276 
PRIMCOORD
16 1
Li	      0.22035      0.17487      0.00039         0.017658     -0.004923      0.000306
Li	      2.57007      1.92584      0.00021         0.018778      0.003532      0.000266
Li	      0.13098      4.02171      0.00064         0.015426      0.026447     -0.001683
Li	      2.48159      6.49253      0.00060         0.016489     -0.027326      0.000102
Ti	      2.55512      4.10160      1.91466         0.178662     -0.197263      0.000358
Ti	      0.20516      6.41165      1.91529         0.171639      0.206450     -0.000551
Ni	      2.51705      0.10450      1.91479        -0.057608     -0.002096     -0.007735
Ni	      0.16638      1.99638      1.91472        -0.057996     -0.001848     -0.001237
O	      4.57388      8.25822      1.91477         0.144295     -0.361397     -0.000417
O	      2.22340      2.25562      1.91462         0.144568      0.357572      0.000659
O	      2.20620      8.40073      0.00027        -0.061907     -0.014502      0.008463
O	      4.39704      4.34091      1.91473        -0.247980      0.027955     -0.000362
O	      2.04667      6.17247      1.91483        -0.244108     -0.028096      0.000819
O	      4.55632      2.11342      0.00018        -0.062347      0.015432      0.001633
O	      2.19442      4.25107      0.00049         0.012062     -0.029267     -0.000424
O	      4.54458      6.26231      0.00048         0.012369      0.029331     -0.000197
