# total energy = -103.85851775 eV
 
CRYSTAL
PRIMVEC
2.067039 4.166424 2.067299 
2.073437 -4.172997 2.073468 
4.188223 -0.000053 -4.188526 
PRIMCOORD
16 1
Li	      6.21833      4.16390     -2.08516        -0.016591      0.000530      0.017677
Li	      2.05921      2.08078      0.00783        -0.017153      0.001622      0.016145
Li	      2.07216     -0.00429      2.06727        -0.005195     -0.001258      0.006393
Li	      6.24773      2.07945     -0.04082         0.020570     -0.002206     -0.020090
Ti	      4.00757      2.07786      2.20045        -0.276055      0.004434      0.274292
Ti	      4.22648     -0.00492     -0.08611         0.121484      0.000395     -0.122316
Ni	      4.16733      4.16448     -0.03361         0.010803     -0.000695     -0.010623
Ni	      4.23602      2.08108     -2.16980         0.060204      0.002414     -0.060084
O	      4.12984     -2.00193     -0.01886        -0.086731      0.119285      0.008971
O	      2.18231     -0.13098     -0.04853         0.032168     -0.096015      0.123017
O	      4.15876      1.99151      0.00969        -0.008167     -0.120681      0.087808
O	      2.07696     -2.11586      1.99249        -0.011660      0.006863     -0.356301
O	      4.18847      0.12076      1.95766        -0.124196      0.094394     -0.029499
O	      4.15137      0.06262     -2.01508         0.108372     -0.131002      0.161972
O	      2.14789      2.10537      2.06334         0.355530     -0.007273      0.010874
O	      6.15515     -0.07337     -0.01143        -0.163383      0.129195     -0.108235
