# total energy = -102.36605090 eV
 
CRYSTAL
PRIMVEC
0.000387 2.101161 2.099713 
8.055723 0.007402 -0.003123 
0.004670 4.348355 -4.346329 
PRIMCOORD
16 1
Li	      0.05785      0.17223     -0.16800         0.020721     -0.007229      0.011028
Li	      2.11077      2.16566     -0.02662        -0.001517     -0.029957      0.010297
Li	      3.98054      1.94989     -1.94546        -0.028204      0.022768     -0.023842
Li	      3.97687      2.29569      1.90401        -0.026511     -0.000265      0.015190
Ti	      6.07007      4.36390     -2.19906         0.008291      0.044427     -0.008620
Ti	      2.20704      4.32347     -2.23976         0.304728      0.049385     -0.043392
Ni	      5.97161      2.11992     -0.02742         0.033055     -0.006171      0.009625
Ni	      0.02009      2.10513     -2.09868         0.050230      0.010111     -0.030473
O	      4.05588      2.11974     -0.01971        -0.160400      0.021522     -0.004787
O	      5.98593      4.39718     -0.19568        -0.074051      0.079296     -0.119081
O	      4.03796      4.31746     -2.23021        -0.246927      0.018636      0.015595
O	      6.05601      6.32959     -2.12359        -0.000411     -0.164555      0.128543
O	      7.96077      2.18880     -0.07956         0.120579     -0.089150      0.096204
O	      2.02102      4.41568     -0.21741         0.127068      0.068104     -0.075723
O	      7.95924      4.25037     -2.14360        -0.135599      0.075090     -0.087940
O	      1.98500      6.28182     -2.08979         0.008945     -0.092012      0.107377
