# total energy = -102.50600617 eV
 
CRYSTAL
PRIMVEC
2.098032 4.071024 2.094922 
2.090599 -4.066926 2.093216 
4.308484 0.003200 -4.308032 
PRIMCOORD
16 1
Li	      2.28702     -4.05804      1.89698        -0.005282     -0.009137      0.005594
Li	      2.13296      2.01495     -0.03236        -0.021892      0.002596      0.020176
Li	      4.07230     -4.06146      0.10997        -0.005920     -0.008722      0.006888
Li	      2.24544      0.01419      1.94546        -0.008329     -0.014117      0.008163
Ti	      6.39353     -1.89661     -0.11827         0.062269      0.285455     -0.051485
Ti	      4.27160     -1.88040     -2.18392         0.042178      0.266810     -0.043206
Ni	      4.18819      2.02203      2.10519        -0.017892      0.013485      0.008262
Ni	      4.14371     -0.00761      0.04780         0.056295      0.001731     -0.063555
O	      4.35824     -2.07416     -0.18102         0.102723     -0.087349     -0.090491
O	      2.14817     -0.08533     -0.01788        -0.128894      0.173894     -0.014306
O	      4.37280      2.01927     -0.17538         0.095822      0.139475     -0.105944
O	      6.25151     -2.07610     -2.08535        -0.102811      0.027405      0.158287
O	      4.20871      0.05977      2.04092         0.005924     -0.167297      0.130263
O	      4.26782     -0.04690     -2.12676         0.009761     -0.325744     -0.068345
O	      6.27408      2.04002     -2.06737        -0.155527      0.019087      0.108558
O	      6.31445     -0.06768     -0.08769         0.071574     -0.317572     -0.008859
