# total energy = -99.95277458 eV
 
CRYSTAL
PRIMVEC
0.000087 2.090419 2.090367 
8.564394 0.000048 0.000003 
0.000009 4.171879 -4.171786 
PRIMCOORD
16 1
Li	      0.29463      4.17223     -4.16928         0.013152      0.001024     -0.002782
Li	      2.14204      2.08979      0.00276        -0.002303     -0.002360      0.000393
Li	      3.98915      2.08620     -2.08418        -0.013648     -0.000373     -0.002285
Li	      2.14315      4.17383     -2.08309        -0.000007      0.000216      0.000415
Ti	      6.42358      4.17133     -2.08184        -0.008644      0.003722     -0.001698
Ti	      6.42352      2.08451      0.00317         0.014482      0.005282     -0.001770
Ni	      4.10534      4.17177     -4.17159         0.033800     -0.003174      0.003522
Ni	      0.17813      4.17598      0.00440        -0.034861     -0.004290      0.004949
O	      4.52263      2.04954      0.04132         0.222027      0.097503     -0.097621
O	      6.39795      4.17467      0.00529        -0.043724     -0.001998      0.000616
O	      4.52238      4.21257     -2.12214         0.225949     -0.096784      0.097006
O	      6.44905      6.26048     -2.08059         0.043480      0.000937     -0.000255
O	      8.32494      2.12680     -0.03626        -0.232669     -0.095564      0.096180
O	      2.09992      2.08639     -2.08565         0.159248      0.000102     -0.000587
O	      8.32410      4.13501     -2.04494        -0.216682      0.097220     -0.097298
O	      2.18358      0.00076      0.00041        -0.159599     -0.001463      0.001215
