# total energy = -103.81723486 eV
 
CRYSTAL
PRIMVEC
2.062636 4.177215 2.062400 
4.157474 -4.183108 -0.020538 
4.178035 -0.000001 -4.177609 
PRIMCOORD
16 1
Li	      0.06505      0.01023      0.00157         0.028278     -0.008722      0.010418
Li	      2.07615      2.09964      0.05296         0.010441     -0.013080      0.028477
Li	      4.11954      2.11902      2.03189        -0.020882      0.005195      0.008031
Li	      6.22254      0.03019     -2.13267         0.005901      0.004654     -0.022391
Ti	      4.05166     -0.01871      0.10828        -0.230909     -0.041752      0.207789
Ti	      4.29795     -2.10702     -2.20138         0.212612     -0.038942     -0.222174
Ni	      8.26821     -0.05675     -0.07105        -0.054573     -0.009183     -0.033982
Ni	      8.29663     -2.14559     -2.16190        -0.032915     -0.009105     -0.058645
O	      4.19137     -1.96187     -0.07177        -0.016944      0.102576     -0.131880
O	      6.18080      0.12693      0.00080        -0.132619      0.100288     -0.014290
O	      2.18848      0.02439     -0.04699         0.290577     -0.015582      0.110290
O	      4.22442      2.01207     -0.05506         0.024822     -0.134050      0.107691
O	      6.19019     -2.14909     -2.14453        -0.306289      0.105332      0.005159
O	      8.28582     -0.06050     -2.17732         0.007550      0.104581     -0.307487
O	      4.13503     -0.07646     -2.02813         0.106243     -0.134928      0.023075
O	      6.20571      2.11345     -2.00184         0.108707     -0.017281      0.289919
