# total energy = -102.92190800 eV
 
CRYSTAL
PRIMVEC
0.003204 4.114992 -0.000539 
4.254287 0.002908 4.068964 
4.282255 0.003989 -4.097486 
PRIMCOORD
16 1
Li	      8.46746      0.00899     -0.02389         0.018483     -0.000285     -0.011650
Li	      2.20115      2.05610      0.00191        -0.000701     -0.000973      0.017468
Li	      4.27837      0.00456     -0.01787        -0.030865      0.000449      0.013679
Li	      2.24349      0.00876      1.92774         0.012418     -0.000828     -0.021826
Ti	      6.27226      0.01273      2.10790        -0.153301      0.008365      0.353525
Ti	      4.45508      2.12841     -2.07347         0.242979      0.027087     -0.053257
Ni	      6.39357      2.05812     -0.03706         0.020684     -0.000592     -0.048159
Ni	      4.16576      2.05816      2.01695        -0.023777     -0.001789     -0.007981
O	      2.16241      4.11456     -0.13137        -0.029366      0.000794     -0.362670
O	      4.31115      2.05068     -0.12144        -0.086138      0.005403     -0.176437
O	      4.34673      4.11341      2.04078         0.197565      0.001433     -0.006054
O	      2.15445      2.05431     -2.03323         0.081590     -0.006999      0.113505
O	      4.19771      4.08067     -2.05495        -0.024613     -0.050255     -0.000430
O	      6.34112      2.06606     -2.08962        -0.329559      0.011188     -0.103056
O	      6.40677      4.11612      0.12326         0.002038     -0.000710      0.074271
O	      4.21539      2.05151     -3.98850         0.102563      0.007713      0.219074
