# total energy = -101.04853292 eV
 
CRYSTAL
PRIMVEC
-0.000539 3.992837 0.000344 
4.253766 0.000216 4.281706 
4.269449 0.000781 -4.296565 
PRIMCOORD
16 1
Li	      0.05250      3.99195     -0.01129        -0.004216     -0.000202      0.016000
Li	      2.06493      1.99569     -0.11033         0.003042      0.001089      0.017244
Li	      4.11875      3.99210     -0.06319        -0.005674     -0.000141      0.021130
Li	      2.18096      3.99227      1.81752        -0.003327     -0.000184      0.008884
Ti	      4.25994      1.99411      1.88552         0.057594     -0.002207     -0.259405
Ti	      4.52725      1.99690     -2.21910         0.183522      0.000435     -0.371238
Ni	      6.43758      1.99631      0.02601         0.007081      0.000510     -0.080817
Ni	      2.16196      3.99237     -2.05512         0.026028      0.000253      0.002250
O	      2.11727      3.99213     -0.08691        -0.002194     -0.000227      0.174199
O	      4.27870      1.99586      0.04860        -0.061321     -0.000499      0.292720
O	      4.17682      0.00039      2.13555        -0.051968      0.004202     -0.010608
O	      6.14643      1.99634      2.14687        -0.179618     -0.001210      0.038882
O	      4.32408      3.99222     -2.04657         0.065983     -0.002101     -0.011215
O	      6.40279      1.99673     -2.10265        -0.183636     -0.000068     -0.097930
O	      6.43983      3.99272      0.20852        -0.004048     -0.000624     -0.114838
O	      4.25436      1.99615     -4.01688         0.152752      0.000973      0.374743
