# total energy = -153.86942888 eV
 
CRYSTAL
PRIMVEC
2.095385 2.095476 3.963022 
-6.296927 6.296605 0.000302 
-2.095501 -2.095196 3.962983 
PRIMCOORD
24 1
Li	     -5.24353      3.15298      4.95574        -0.010735     -0.001223     -0.008195
Li	     -3.15338      5.24482      4.95133        -0.000708      0.008514      0.010641
Li	     -3.13891      1.05130      4.95549        -0.011006     -0.002927     -0.006496
Li	     -1.05419      3.14249      4.95301         0.014314      0.006311      0.007798
Li	     -7.34287      5.24562      4.95512        -0.005935      0.008688     -0.008521
Li	      1.04117      1.04611      4.95281         0.012090      0.000041      0.005929
Ti	     -1.07083      1.07207      2.97093        -0.007316      0.002757      0.005030
Ti	     -3.14570      3.14899      6.93705         0.002546     -0.006873      0.004173
Ti	     -5.22323      5.21876      2.97114         0.006910     -0.001537     -0.005530
Ni	     -1.03277      1.03367      6.93681         0.025473     -0.026927     -0.007132
Ni	     -3.14624      3.14839      2.97209        -0.008114      0.003230     -0.001507
Ni	     -5.26734      5.26451      6.93521        -0.016017      0.018546      0.001930
O	     -3.14670      5.24725      2.97188        -0.001667      0.014675      0.002913
O	     -5.24701      3.14589      2.97238        -0.021067      0.003242     -0.000240
O	     -1.04908      3.15335      2.97259         0.013594     -0.005610      0.000108
O	     -3.15244      1.05046      2.97302         0.002894     -0.013084     -0.000846
O	      0.98524      0.98708      2.97213        -0.127311     -0.128835     -0.000660
O	     -0.98864     -0.98729      2.97218         0.129733      0.134520     -0.001013
O	     -5.24491      5.24127      4.86974         0.014438     -0.005995     -0.220950
O	     -5.24532      5.24161      1.07337         0.016390     -0.006835      0.238409
O	     -3.14743      3.15030      5.04982        -0.005244     -0.006422      0.257669
O	     -3.14784      3.14910      0.89611        -0.004031      0.001578     -0.269832
O	     -1.05430      1.05593      4.87127        -0.008320      0.000859     -0.243024
O	     -1.05417      1.05546      1.07409        -0.010911      0.003305      0.239348
