# total energy = -153.10722955 eV
 
CRYSTAL
PRIMVEC
0.003237 4.225061 -0.003676 
-0.009535 -0.010635 11.884866 
4.208664 0.003206 -0.003301 
PRIMCOORD
24 1
Li	      1.04939      1.05875      0.98754         0.002538      0.002139      0.005599
Li	      1.06241      1.03004      4.94502        -0.006716     -0.009503     -0.002203
Li	      1.02169      1.04161      8.91670        -0.000992      0.000578     -0.005632
Li	      3.15505      3.17267      0.98415         0.001761      0.000586     -0.000115
Li	      3.15261      3.19190      4.94585         0.010477      0.003944     -0.007639
Li	      3.16555      3.15170      8.90890         0.003791     -0.004955      0.007641
Ti	      1.10920      3.07176      6.92831         0.034424     -0.027175      0.002923
Ti	      3.26316      1.18039      2.97969         0.039804      0.062238      0.214521
Ti	      3.03332      0.93467     10.87840        -0.053878     -0.056152     -0.212645
Ni	      1.06627      3.19334      2.93609         0.001764      0.004821      0.097143
Ni	      1.02204      3.14659     10.92261        -0.009386     -0.014612     -0.106909
Ni	      3.16061      1.03285      6.92974         0.007814     -0.008462     -0.004657
O	      0.99154      1.06479      2.97949        -0.088899      0.023597     -0.005593
O	      1.04932      1.08910      6.93013         0.014715      0.055362     -0.000557
O	      1.09724      1.04867     10.88148         0.082282     -0.014738      0.006440
O	      3.15731      3.10791      2.97786         0.012821     -0.100651     -0.004288
O	      3.12256      3.15531      6.92691        -0.037560     -0.007825     -0.000824
O	      3.13853      3.22854     10.87611        -0.007757      0.091228      0.005730
O	      1.05020      3.16987      0.98684        -0.002146      0.008786     -0.001178
O	      1.03870      3.18210      5.05086         0.005996     -0.008002      0.243419
O	      1.03414      3.17703      8.80555        -0.006970     -0.014034     -0.234378
O	      3.15420      1.05849      0.98584        -0.003422      0.009450      0.001385
O	      3.13689      1.03829      4.83595         0.017544      0.018489     -0.317403
O	      3.16210      1.06633      9.02124        -0.018008     -0.015106      0.319222
