# total energy = -153.55504534 eV
 
CRYSTAL
PRIMVEC
2.101045 2.099040 3.948727 
-4.223902 0.006444 3.956568 
2.115753 -6.315217 3.950583 
PRIMCOORD
24 1
Li	     -1.09152     -1.03604      4.94077         0.003923      0.011223      0.000896
Li	      1.04706     -3.30078      4.94562         0.014696      0.018309     -0.003546
Li	      1.19064     -3.16805      8.88875        -0.019860     -0.008004      0.002213
Li	     -1.18101     -5.27855      8.90624         0.009103      0.011372      0.000752
Li	      1.04116      1.18763      4.94010        -0.003183     -0.027116     -0.000106
Li	     -1.03330     -1.03106      8.87620        -0.006728     -0.007738      0.007060
Ti	     -1.15337      1.11408      6.90756        -0.115706      0.040168     -0.033334
Ti	      1.11056     -1.00220      6.83690         0.042239      0.054981     -0.356472
Ti	     -1.03031     -3.19874      6.94823         0.056077     -0.030598      0.242081
Ni	      3.12786     -3.17055      6.91293        -0.026430     -0.010533     -0.061235
Ni	      1.10283     -5.29183      6.93210         0.003258      0.014304      0.059147
Ni	      1.06306     -1.05027      2.94651         0.002859      0.017791      0.020849
O	     -0.98379     -1.06713      6.91244         0.101622     -0.020464     -0.001485
O	      0.94059     -3.07178      6.92707        -0.162030      0.099426     -0.006872
O	     -1.05927     -5.24469      6.91196         0.004097      0.006480     -0.006069
O	      1.12848      1.02666      2.96124         0.232573      0.016076      0.002400
O	     -1.09430     -1.14275      2.98664        -0.104812     -0.179402     -0.006375
O	      1.02367     -3.14525      2.95175        -0.034847     -0.009883      0.000202
O	     -1.04592      1.05341      5.02021        -0.008155      0.001449      0.277963
O	      1.07238     -1.05198      5.00583         0.002524      0.002841      0.455886
O	     -1.06970     -3.15468      4.97653         0.003340     -0.005535      0.012631
O	     -1.11012     -3.15487      8.79873         0.011106      0.001502     -0.344912
O	      1.05592     -5.26179      4.95309        -0.001041      0.007323     -0.004629
O	     -3.15455     -1.04445      4.85444        -0.004623     -0.003971     -0.257043
