# total energy = -151.98411159 eV
 
CRYSTAL
PRIMVEC
0.000077 -0.003950 3.947146 
4.149780 0.001316 0.000081 
0.004276 13.133057 -0.012881 
PRIMCOORD
24 1
Li	      1.03629      1.32543      0.95167         0.000525     -0.003023      0.002805
Li	      1.03872      5.24665      0.97660         0.000561      0.001503     -0.002586
Li	      1.04743      9.81498      0.98721        -0.003569      0.003141     -0.002831
Li	      3.11106      3.49838      0.97432         0.000838     -0.010199     -0.002784
Li	      3.10561      7.72494      0.97451        -0.002714     -0.001238     -0.000181
Li	      3.11783     11.81120      1.00075         0.002570      0.021192     -0.000759
Ti	      0.97627      7.51849      2.88443        -0.015696     -0.348183     -0.098533
Ti	      1.05038     11.92899      3.06078         0.016375     -0.176473      0.219323
Ti	      3.11402      1.16142      2.83646         0.005659      0.345746     -0.214245
Ni	      1.03356      3.33021      2.95486         0.002957      0.065461     -0.009415
Ni	      3.11911      9.79891      2.95212        -0.005064      0.023272      0.003902
Ni	      3.10641      5.49431      2.95507        -0.001580     -0.090453      0.002715
O	      1.03199      0.93247      2.93964        -0.007792     -0.071202     -0.000383
O	      1.03971      5.67920      2.95122        -0.018508      0.407959     -0.019160
O	      1.04400     10.03433      2.95470        -0.003964      0.167144      0.011111
O	      3.10834      3.02143      2.95477         0.001871     -0.359758     -0.022553
O	      3.16714      7.67819      2.95855         0.041933      0.004891     -0.006002
O	      3.10780     12.13455      2.96303        -0.009993      0.030734      0.009814
O	      1.03552      3.26152      0.97985        -0.000811      0.001033     -0.007974
O	      1.05775      7.75677      1.01555        -0.009420      0.002345      0.124613
O	      1.03808     12.03243      0.95655         0.002089     -0.036828     -0.225444
O	      3.11357      5.45528      0.97975         0.001884      0.016664      0.006543
O	      3.11827      9.86751      0.97956         0.000970     -0.001655      0.009036
O	      3.10940      1.01293      0.99755         0.000879      0.007927      0.222986
