# total energy = -154.38507818 eV
 
CRYSTAL
PRIMVEC
3.990872 -0.000091 -0.000078 
-1.995379 -4.377216 2.087481 
1.995621 -4.524249 -0.000002 
PRIMCOORD
24 1
Li	     -0.99768     -5.28790     -1.06148         0.002314      0.008598     -0.001895
Li	      2.99305     -5.48186     -5.31006         0.001471      0.009881      0.018357
Li	      2.99265     -5.88887     -9.89905        -0.000977     -0.027453      0.001754
Li	      2.99345     -3.03014     -3.08388         0.001213      0.001238     -0.015394
Li	      0.99738     -7.51040     -5.36127         0.001131      0.013853      0.014848
Li	     -0.99852     -3.63950      0.78825        -0.001436     -0.007245     -0.001938
Ti	      0.99701     -5.47377     -7.46221        -0.000817      0.119841      0.017647
Ti	      0.99902     -3.33098     -5.22538        -0.003007      0.235675      0.360728
Ti	      2.99147     -7.85685     -7.67294         0.003794     -0.196623     -0.470969
Ni	      2.99291     -1.23499     -1.25268         0.000697      0.125168      0.061585
Ni	      0.99776     -5.53843     -3.16848        -0.001962      0.022561     -0.065284
Ni	      0.99748     -3.33386     -1.20866        -0.001148     -0.007823      0.023661
O	      0.99686     -3.35787      1.24305        -0.000692      0.068229      0.501826
O	      0.99778     -3.49243     -3.39476         0.000482      0.126492     -0.427960
O	      4.98809     -3.57566     -7.49297        -0.000314     -0.182842     -0.009625
O	      2.99308     -5.84809     -3.38536        -0.000568     -0.283486     -0.010134
O	      2.99269     -5.78543     -7.46266         0.001528     -0.001604      0.007523
O	      0.99755     -1.22337     -1.05606        -0.006189      0.102310      0.018856
O	      2.99290     -3.23488     -1.10867         0.003993     -0.130190      0.001062
O	      2.99298     -3.34558     -5.42394         0.000179     -0.102340     -0.012539
O	      0.99708     -7.54836     -7.45704         0.000191      0.028036      0.020573
O	      0.99786     -5.39479     -1.18858        -0.000295     -0.126727      0.036572
O	      0.99762     -5.41232     -5.51814         0.000761      0.006499     -0.180248
O	      4.98798     -5.35273     -9.44675        -0.000350      0.197952      0.110993
