# total energy = -155.45198943 eV
 
CRYSTAL
PRIMVEC
4.096459 -0.001377 0.000967 
-2.046320 -4.333109 2.044594 
2.047233 -4.320618 0.000006 
PRIMCOORD
24 1
Li	     -1.02991     -5.40512     -1.01045        -0.002410      0.001799      0.001556
Li	      3.08572     -5.40892     -5.08479        -0.007921      0.009443     -0.000127
Li	      3.07724     -5.42959     -9.21447        -0.011570     -0.004807      0.000315
Li	      3.08572     -3.13610     -3.04309         0.006115      0.010339      0.001494
Li	      3.08655     -3.23304     -7.16248        -0.000701     -0.004149     -0.008706
Li	     -1.02631     -3.34143      1.05756         0.009211     -0.003155      0.004595
Ti	      1.11198     -5.43621     -7.19201         0.063663     -0.143890     -0.167864
Ti	      1.08248     -3.26750     -0.93716         0.059769     -0.030815      0.196936
Ti	      1.12224     -3.20877     -5.06915         0.073985      0.171728      0.014414
Ni	      3.06106     -1.09516     -0.99964        -0.008113      0.021868      0.020992
Ni	      1.01501     -5.39144     -3.08050        -0.014075     -0.022884      0.000969
Ni	      3.06614     -7.57187     -7.13634         0.000621      0.005999     -0.030435
O	      1.01657     -3.34544      0.96008         0.012820      0.127256     -0.297767
O	      1.01499     -3.32013     -3.09940         0.016115      0.136580     -0.078966
O	      5.10932     -3.39596     -7.06094         0.014110     -0.024415      0.176946
O	      3.04957     -5.64507     -3.09204         0.032312     -0.213203      0.005826
O	      3.04213     -5.46732     -7.14446        -0.099077      0.126525      0.004256
O	      1.00487     -1.30482     -1.01420         0.003604     -0.100921     -0.005293
O	      3.04428     -3.19471     -1.02485        -0.063049     -0.126381     -0.004911
O	      3.03966     -3.18530     -5.08367        -0.119369     -0.110221      0.006041
O	      1.00768     -7.35621     -7.13030         0.016291      0.183639      0.000739
O	      1.00626     -5.20581     -1.04336         0.003292      0.107171      0.016102
O	      1.00876     -5.24273     -5.17436         0.007341      0.036746     -0.143990
O	      5.11060     -5.27764     -9.09472         0.007038     -0.154251      0.286879
