# total energy = -50.29750150 eV
 
CRYSTAL
PRIMVEC
2.104843 2.104465 0.000117 
-2.104653 -0.000074 2.106221 
6.551204 -6.549823 4.450302 
PRIMCOORD
8 1
Li	      1.35295      0.75616      1.35522         0.000774     -0.002892      0.006492
Li	      3.00771     -3.00389      3.00869        -0.003658      0.000736     -0.003613
Ti	      5.45302     -3.34907      5.46022        -0.000229     -0.003688      0.007001
Ni	      1.12770     -1.12444      3.23597        -0.003778      0.003366     -0.011206
O	      3.20576     -1.09794      3.20886         0.084575     -0.083568      0.089328
O	      5.35461     -5.35630      5.36207        -0.069700      0.072246     -0.072311
O	      1.15377     -1.15037      1.15521        -0.078929      0.082295     -0.080213
O	      5.54985     -3.44659      3.45367         0.070945     -0.068496      0.064524
