# total energy = -103.82516859 eV
 
CRYSTAL
PRIMVEC
-2.075645 2.075613 4.154671 
0.031176 -4.212538 4.201068 
4.212940 -0.031043 4.201140 
PRIMCOORD
16 1
Li	      1.09067     -1.11539      7.30982        -0.001224     -0.009859      0.000857
Li	      1.10952     -3.17173      5.23225         0.011734      0.000155      0.000831
Li	      3.17565     -1.05561      5.25918         0.002485      0.007127     -0.001749
Li	     -1.05686      1.03174      3.13543        -0.008129     -0.003429     -0.000482
Ti	     -1.09315     -1.15295      5.22177        -0.129896     -0.117261     -0.001669
Ti	      1.14660     -0.98842      3.14454         0.128521      0.128341     -0.006236
Ni	      1.06369      1.00349      5.22187         0.015115      0.022177     -0.000787
Ni	      3.20352     -3.17627      7.34564        -0.023885     -0.018205     -0.001561
O	      3.17426     -3.10230      9.42593         0.100582      0.191263      0.087803
O	      0.99015      1.03271      7.30191        -0.199780     -0.099754      0.087787
O	     -1.00065     -0.99444      7.20558         0.093551      0.039581     -0.086419
O	      0.98866     -1.08087      5.12810        -0.039388     -0.094261     -0.086335
O	      1.20078     -1.13026      9.41996         0.200291      0.105262     -0.085966
O	      1.12438     -3.28187      7.34248        -0.104198     -0.203075     -0.085675
O	      3.27770     -1.09137      7.43887         0.045673      0.092850      0.086625
O	     -1.02148      0.92895      5.31467        -0.091453     -0.040913      0.092977
