# total energy = -153.09587905 eV
 
CRYSTAL
PRIMVEC
-0.000090 2.069054 2.068897 
-15.657268 -2.102314 4.171633 
2.230271 -4.157804 2.088488 
PRIMCOORD
24 1
Li	    -10.09920     -5.21586      5.21424        -0.013344     -0.002287      0.002028
Li	     -7.80518     -3.14141      5.20874         0.013446      0.002437     -0.003716
Li	     -5.18269     -2.96453      2.96173        -0.001092      0.026305     -0.025159
Li	     -3.04936     -1.03466      3.10075         0.008399      0.018632     -0.018430
Li	     -1.42991     -1.06177      1.05924        -0.008384     -0.017256      0.019015
Li	    -14.95312     -1.23453      5.37098         0.002499     -0.026733      0.023935
Ti	     -7.71193     -1.00761      3.07490         0.515995      0.122986     -0.123359
Ti	    -10.06723     -1.06528      5.20180        -0.002172     -0.002137      0.001064
Ti	    -12.42343     -3.19184      5.25959        -0.504510     -0.117176      0.115449
Ni	      0.89638     -1.15198      3.21882         0.089757      0.115691     -0.115870
Ni	     -1.12453     -3.12694      3.12444        -0.001798     -0.001703      0.000512
Ni	     -3.14514     -3.03316      5.09934        -0.095888     -0.118399      0.118904
O	    -12.14195     -3.02754      7.16425        -0.005778      0.165042     -0.168103
O	    -10.06856     -3.07204      5.13961        -0.009044      0.075581     -0.077665
O	     -8.07002     -0.99036      5.12669        -0.133741      0.020270     -0.019970
O	     -5.91316     -1.07560      3.14257        -0.567771     -0.032375      0.028740
O	     -3.41973      1.05356      3.08241         0.121812     -0.101299      0.094962
O	      1.09797     -3.09537      3.09327         0.074643     -0.148611      0.149045
O	    -12.06449     -1.14013      5.27645         0.136602     -0.018252      0.021912
O	    -10.06579     -1.12786      3.19501         0.006405     -0.075276      0.078466
O	     -5.76296     -3.26055      5.32717         0.007811     -0.166719      0.170643
O	     -3.34662     -3.15880      3.15596        -0.075191      0.149503     -0.145557
O	     -1.05945     -1.08065      3.14694        -0.116790      0.098818     -0.096555
O	    -14.22178     -3.12338      5.19066         0.558136      0.032959     -0.030289
