# total energy = -89.68052467 eV
 
CRYSTAL
PRIMVEC
-0.006744 2.091750 2.160488 
6.324954 6.475533 -4.544129 
-4.090872 2.106102 -2.160647 
PRIMCOORD
16 1
Li	     -1.91522      4.32175     -2.38740        -0.054383     -0.031017      0.025505
Li	      0.00651      6.30580     -2.09663         0.062843      0.024262     -0.022495
Li	      0.14655      4.37069     -0.28344        -0.069693     -0.009680      0.011318
Li	      2.04179      4.14600     -2.04301         0.060342      0.012175     -0.013549
Mn	     -4.06583      2.13921     -2.16930         0.103815      0.004571     -0.000740
Mn	      2.16210      6.39796     -4.47642        -0.104503     -0.005232     -0.000119
Ni	     -2.01205      2.14789     -0.02684         0.018650     -0.000424      0.017085
Ni	      4.19219      6.37357     -2.30120        -0.020258      0.002803     -0.020431
O	      4.25551      6.45295     -4.51602         0.004103      0.000812     -0.000966
O	      0.29878      6.48503     -4.61634         0.093711     -0.116635      0.104002
O	      2.20750      8.54722     -4.52373        -0.001723      0.002733      0.006114
O	     -2.20882      4.14276      0.12584        -0.106232      0.113946     -0.097424
O	      0.07378      4.25513     -2.24042         0.023824     -0.019759      0.004768
O	      2.21087      6.56322     -2.51888        -0.108412      0.003457     -0.036524
O	     -0.03161      1.96384      0.19931         0.117195     -0.004831      0.030405
O	      2.11021      4.26324     -0.08396        -0.019280      0.022819     -0.006949
