# total energy = -103.73176993 eV
 
CRYSTAL
PRIMVEC
2.039850 4.184087 2.022842 
4.083855 -2.089900 -2.031528 
-0.012044 4.241790 -4.148442 
PRIMCOORD
16 1
Li	      2.05039      4.16532      1.92013        -0.047646      0.056827      0.068721
Li	      2.03740      2.07300     -0.03321        -0.075601     -0.014614      0.068186
Li	      4.02083      4.12414     -0.00557         0.113774     -0.039166      0.111242
Li	      4.03909      2.10521     -2.00605         0.044042     -0.110146      0.069861
Ti	      2.00177      4.10628     -1.94561        -0.341810      0.135128      0.040154
Ti	      4.01442      4.30178     -4.25808         0.222285      0.303917     -0.827917
Ni	      3.99646      0.03087     -3.99094         0.129484     -0.264360     -0.109588
Ni	      4.03366      6.26525     -2.09417         0.059798      0.413920     -0.085789
O	      1.96635      2.24166     -2.07032        -0.022773     -0.490329      0.132147
O	      3.96901      4.22584     -2.11984         0.304386     -0.199877      0.078848
O	      2.11625      4.13590     -4.04139        -0.362904      0.177874     -0.329351
O	      4.05331      1.92402      0.00854         0.147470     -0.197784      0.112006
O	      4.01725      0.01509     -1.96982         0.048558     -0.265177      0.366878
O	      2.05006      4.20819     -0.11707        -0.011901      0.024712      0.587447
O	      4.10913      2.16285     -4.08498        -0.004885     -0.047715     -0.186815
O	      1.93484      6.15324     -2.05016        -0.202278      0.516791     -0.096032
