# total energy = -102.84137509 eV
 
CRYSTAL
PRIMVEC
2.122268 4.353141 2.104572 
4.248859 -2.174341 -2.113610 
-0.012530 4.413176 -4.316056 
PRIMCOORD
16 1
Li	      0.09715      0.15557     -0.02614         0.078176     -0.170409     -0.334183
Li	      2.20537      2.24390     -0.03595         0.160677      0.013828     -0.213394
Li	      2.23004      0.11099     -2.11060        -0.261057      0.051709     -0.251600
Li	      4.37208      2.27876     -2.17143        -0.083915      0.273875     -0.038288
Ti	      2.16680      4.44481     -2.10601         0.540560     -0.929733      0.672209
Ti	      4.34537      4.65642     -4.60912        -0.340864      0.311353      1.025307
Ni	      0.07707      2.20775     -2.20634        -0.338591      0.711095      0.408310
Ni	      2.24392      2.42862     -4.37139        -0.119539     -0.862815      0.155642
O	      2.12845      2.42647     -2.24100         0.350140      1.602382     -0.086573
O	      4.29621      4.57422     -2.29460        -1.096273     -0.026979     -0.147582
O	      2.29072      4.47687     -4.37457         1.101795     -0.059968      0.683286
O	      4.38747      2.08264      0.00924        -0.333230     -0.485952     -0.725868
O	      4.34843      0.01633     -2.13221        -0.104960      0.751447      0.596721
O	      2.21907      4.55511     -0.12673        -0.083928     -0.490849     -2.117753
O	      4.44789      2.34116     -4.42175         0.650347      0.503276      0.524219
O	      2.09435      6.66052     -2.21918        -0.119339     -1.192257     -0.150454
