# total energy = -100.26211867 eV
 
CRYSTAL
PRIMVEC
1.989891 3.966753 1.973740 
3.968265 -1.969673 -1.989724 
0.010656 3.993970 -4.012191 
PRIMCOORD
16 1
Li	      1.93145      3.81483      1.81772        -0.224130      0.212543      0.522095
Li	      1.87993      1.88671     -0.02756        -0.484790     -0.534217      0.499885
Li	      3.81326      1.92792     -1.90493         0.373935     -0.605676      0.121229
Li	      3.76244     -0.00005     -3.75045         0.297648     -0.318415     -0.169307
Ti	      1.84899      3.71097     -1.82388        -3.104061      1.582754     -2.183958
Ti	      3.85465      3.91805     -3.94002         1.348280      0.664786     -2.820590
Ni	      3.79694      3.80133     -0.02377         2.168795      0.517222      1.984868
Ni	      3.80205      5.70852     -1.93949         0.732248      2.848884     -0.561273
O	      1.86972      1.97412     -1.95235        -0.944590     -3.894313      0.196594
O	      3.70657      3.85078     -1.96250         3.077430     -1.061728     -0.319439
O	      1.99707      3.77799     -3.80152        -2.072422      0.424213     -1.912956
O	      3.82377      1.84052      0.02005         0.697624     -0.483895      0.978266
O	      3.74460      0.03284     -1.80974         0.809027     -1.430460     -0.415127
O	      1.94882      3.78191     -0.12261        -1.672258      0.624530      5.080193
O	      3.88015      2.01386     -3.81720        -0.422063     -1.717326     -0.951160
O	      1.82350      5.61500     -1.94686        -0.580673      3.171096     -0.049320
