# total energy = -101.09001592 eV
 
CRYSTAL
PRIMVEC
2.000309 3.987522 1.984073 
3.989041 -1.979985 -2.000142 
0.010712 4.014881 -4.033197 
PRIMCOORD
16 1
Li	      1.95172      3.85488      1.83681        -0.191813      0.198203      0.442393
Li	      1.89966      1.90652     -0.02786        -0.414050     -0.448101      0.421969
Li	      3.85329      1.94816     -1.92493         0.311304     -0.536874      0.109056
Li	      3.80194     -0.00005     -3.78983         0.256870     -0.273554     -0.140412
Ti	      1.86840      3.74993     -1.84302        -2.612455      1.343419     -1.833827
Ti	      3.89512      3.95919     -3.98139         1.110962      0.532687     -2.462039
Ni	      3.83680      3.84124     -0.02402         1.826161      0.411791      1.695353
Ni	      3.84196      5.76845     -1.95986         0.602674      2.426408     -0.489836
O	      1.88935      1.99485     -1.97285        -0.806271     -3.246814      0.218907
O	      3.74548      3.89121     -1.98311         2.602334     -0.902680     -0.291849
O	      2.01804      3.81765     -3.84142        -1.741617      0.389798     -1.585992
O	      3.86392      1.85984      0.02026         0.594384     -0.410329      0.824422
O	      3.78392      0.03318     -1.82874         0.721710     -1.241860     -0.343302
O	      1.96928      3.82162     -0.12390        -1.411141      0.530229      4.289988
O	      3.92089      2.03500     -3.85728        -0.366657     -1.453039     -0.824511
O	      1.84265      5.67395     -1.96730        -0.482394      2.680717     -0.030321
