# total energy = -90.42902140 eV
 
CRYSTAL
PRIMVEC
-0.020393 2.227265 2.044812 
2.045288 -2.227198 -0.021567 
10.443545 13.480070 0.029939 
PRIMCOORD
16 1
Li	      2.16433      2.53550     -0.13419         0.080173      0.110988     -0.077923
Li	      4.17112      2.22501     -2.14346        -0.080004     -0.095450      0.080533
Li	      6.17311      6.57437     -4.14964         0.018535      0.007169     -0.017708
Li	      8.34963     11.36824     -6.31973        -0.032201     -0.008814      0.032927
Mn	     10.42148     15.69965     -8.39368         0.073485      0.039958     -0.076049
Mn	      8.27315      6.74842     -6.24856        -0.006740     -0.002423      0.006323
Ni	      4.20417      6.72751     -2.17862        -0.005330      0.005033      0.005656
Ni	     10.31923     11.06925     -8.29087         0.056477      0.039987     -0.057278
O	     10.47309     13.31830     -8.44523         0.033170      0.013505     -0.031334
O	      8.17708      8.93308     -6.15274        -0.000416     -0.002543      0.000799
O	     10.39555      9.05033     -8.36685        -0.111963     -0.064793      0.109714
O	      6.29664      9.00429     -4.27115         0.014339      0.008278     -0.014636
O	      4.34593      4.59445     -2.32008        -0.118764     -0.024093      0.119710
O	      6.15275      4.51442     -4.12819         0.134031      0.022607     -0.134629
O	      1.92072     -0.08740      0.10133        -0.047505     -0.044688      0.047169
O	      2.10655      4.54661     -0.07782        -0.007286     -0.004722      0.006726
