# total energy = -102.56835935 eV
 
CRYSTAL
PRIMVEC
2.013471 4.065208 1.987073 
4.029462 -2.030219 -1.994506 
-0.005794 4.102267 -4.042104 
PRIMCOORD
16 1
Li	      0.02022      3.98122     -3.91689        -0.232831      0.266540     -0.353917
Li	      1.95219      1.97885     -0.00961        -0.172444      0.021233      0.331705
Li	      3.87720      3.95200     -0.02134         0.184741     -0.209722      0.387798
Li	      1.94914      3.96682     -1.96997        -0.073393      0.175536      0.034224
Ti	      0.03595      1.88527     -1.85917        -1.537701     -1.162492      0.799865
Ti	      3.86234      6.04793     -2.07950         0.709722      0.990229     -1.603297
Ni	      3.86681      2.01112     -1.90749         0.843027      0.034163      0.515400
Ni	      3.93992      3.95256     -3.96615         0.511887      0.625788     -1.336424
O	      1.87301      1.99995     -2.03862        -0.211221     -0.368002      0.623884
O	      4.00732      4.00450     -2.00812         0.305833      0.775233      0.720550
O	      1.99277      3.84645     -3.94403        -1.224530      0.196104     -0.379964
O	      3.86674      1.92433      0.04399         0.478413     -0.115432      1.303074
O	      3.94586      0.06044     -1.99678         0.299445     -1.557740      0.057154
O	      1.90565      4.08633      0.00520         0.309569      0.569802      0.688589
O	      3.79954      1.95903     -3.86547         0.952931     -1.067444     -1.545223
O	      2.02517      5.93317     -1.90020        -1.143447      0.826204     -0.243419
