# total energy = -102.97939588 eV
 
CRYSTAL
PRIMVEC
2.023850 4.086162 1.997315 
4.050233 -2.040684 -2.004787 
-0.005823 4.123413 -4.062939 
PRIMCOORD
16 1
Li	      0.02043      4.02237     -3.95737        -0.182003      0.219290     -0.298710
Li	      1.97237      1.99930     -0.00971        -0.135373      0.024325      0.262257
Li	      3.91728      3.99284     -0.02156         0.142308     -0.177757      0.314184
Li	      1.96929      4.00782     -1.99033        -0.052072      0.139927      0.032726
Ti	      0.03632      1.90476     -1.87838        -1.195534     -1.020771      0.670482
Ti	      3.90227      6.11044     -2.10099         0.523392      0.865708     -1.315393
Ni	      3.90678      2.03190     -1.92721         0.666936      0.032940      0.434210
Ni	      3.98064      3.99341     -4.00714         0.384756      0.481563     -1.073719
O	      1.89237      2.02062     -2.05969        -0.238070     -0.302492      0.520130
O	      4.04874      4.04589     -2.02888         0.244086      0.660962      0.583156
O	      2.01337      3.88621     -3.98479        -1.005146      0.100192     -0.304755
O	      3.90671      1.94422      0.04444         0.385942     -0.068796      1.080451
O	      3.98664      0.06107     -2.01741         0.247936     -1.272379     -0.000398
O	      1.92534      4.12857      0.00525         0.291038      0.528757      0.558588
O	      3.83881      1.97928     -3.90542         0.766184     -0.886448     -1.269784
O	      2.04610      5.99449     -1.91984        -0.844381      0.674979     -0.193425
