# total energy = -103.84814488 eV
 
CRYSTAL
PRIMVEC
2.065365 4.169981 2.038286 
4.133314 -2.082545 -2.045911 
-0.005943 4.207996 -4.146282 
PRIMCOORD
16 1
Li	      0.02128      4.18908     -4.12139        -0.011826      0.044131     -0.068535
Li	      2.05411      2.08217     -0.01011        -0.023128      0.007835      0.043477
Li	      4.07963      4.15833     -0.02245         0.002135     -0.042650      0.062935
Li	      2.05091      4.17393     -2.07283        -0.002409      0.026166      0.004417
Ti	      0.03783      1.98371     -1.95623        -0.142129     -0.438179      0.248976
Ti	      4.06400      6.36369     -2.18807         0.018671      0.399415     -0.361088
Ni	      4.06870      2.11612     -2.00709         0.091205      0.027806      0.134313
Ni	      4.14562      4.15893     -4.17323         0.061042      0.052465     -0.229421
O	      1.97080      2.10437     -2.14506        -0.236542     -0.058267      0.086722
O	      4.21654      4.21358     -2.11297         0.088569      0.218681      0.182075
O	      2.09682      4.04728     -4.14995        -0.271804     -0.244627     -0.054794
O	      4.06863      2.02480      0.04629         0.070353      0.076285      0.399478
O	      4.15187      0.06359     -2.10103         0.054238     -0.312415     -0.224576
O	      2.00514      4.29968      0.00547         0.162748      0.364827      0.107974
O	      3.99792      2.06132     -4.06729         0.086257     -0.250305     -0.315420
O	      2.13091      6.24294     -1.99941         0.052621      0.128831     -0.016534
