# total energy = -103.72218714 eV
 
CRYSTAL
PRIMVEC
-2.065213 4.240081 -2.066885 
2.016567 4.190588 2.018116 
6.122899 -0.025090 -2.042613 
PRIMCOORD
16 1
Li	      2.06500      4.15548      1.93077        -0.050273     -0.022115      0.054737
Li	      2.04341      2.06289     -0.05106        -0.039819     -0.060991      0.060340
Li	      3.97893      4.14724      0.01905         0.141799     -0.014685      0.149980
Li	      4.01941      2.06480     -2.01985         0.025153     -0.090047     -0.030240
Ti	      1.95394      4.17200     -1.99348        -0.281952     -0.106431     -0.481802
Ti	      4.09511      6.24950     -2.14603         0.074347      0.613948     -0.258794
Ni	      6.00326      4.14680     -2.01014         0.261798     -0.085808     -0.007672
Ni	      1.94973      6.24939     -0.00151        -0.231149      0.306583      0.347708
O	      2.06215      6.11665     -2.05570        -0.335789      0.534627     -0.194639
O	      1.97956      4.20318     -0.09743         0.131149     -0.295170      0.586928
O	      2.00913      2.22872     -2.10851         0.106308     -0.561488      0.103189
O	      3.95631      4.30246     -2.02696         0.046704     -0.332997     -0.099745
O	      5.96553      6.17978     -2.04420         0.474223      0.436785     -0.099820
O	      0.05381      4.14384     -2.02377        -0.701835      0.125085     -0.268676
O	      6.02245      3.99578      0.03973         0.196035      0.018942      0.254761
O	      6.03716      2.11267     -1.97227         0.183299     -0.466240     -0.116254
