# total energy = -103.85661814 eV
 
CRYSTAL
PRIMVEC
-2.075643 4.261496 -2.077324 
2.026752 4.211752 2.028308 
6.153823 -0.025217 -2.052929 
PRIMCOORD
16 1
Li	      2.08591      4.19756      1.95033        -0.017527     -0.018758      0.017462
Li	      2.06410      2.08378     -0.05158        -0.012218     -0.019078      0.029297
Li	      4.01922      4.18923      0.01924         0.060344     -0.007829      0.079140
Li	      4.06011      2.08570     -2.04030         0.005766     -0.038513     -0.013121
Ti	      1.97373      4.21425     -2.01367        -0.175593     -0.054209     -0.186182
Ti	      4.13658      6.31278     -2.16776         0.113797      0.296762     -0.192511
Ni	      6.06405      4.18880     -2.03050         0.114077     -0.040282      0.017665
Ni	      1.96948      6.31267     -0.00153        -0.129940      0.143567      0.186891
O	      2.08303      6.17859     -2.07651        -0.138573      0.217515     -0.138963
O	      1.99961      4.24574     -0.09842         0.111809     -0.196861      0.197813
O	      2.02948      2.25129     -2.12986         0.098628     -0.225280      0.029471
O	      3.99638      4.34603     -2.04749        -0.057971     -0.121685     -0.054012
O	      6.02594      6.24236     -2.06490         0.093125      0.267321     -0.055952
O	      0.05435      4.18580     -2.04427        -0.261103      0.115048     -0.185928
O	      6.08344      4.03624      0.04013         0.096830     -0.037254      0.192713
O	      6.09829      2.13406     -1.99224         0.098550     -0.280466      0.076216
