# total energy = -103.86413403 eV
 
CRYSTAL
PRIMVEC
-2.096504 4.304325 -2.098202 
2.047121 4.254082 2.048693 
6.215670 -0.025470 -2.073562 
PRIMCOORD
16 1
Li	      2.12805      4.28235      1.98973         0.050522     -0.012834     -0.043096
Li	      2.10580      2.12588     -0.05262         0.040839      0.049200     -0.023057
Li	      4.10042      4.27386      0.01963        -0.089013     -0.000013     -0.048554
Li	      4.14213      2.12784     -2.08152        -0.029212      0.047918      0.016967
Ti	      2.01360      4.29938     -2.05435         0.031976      0.035337      0.318910
Ti	      4.22015      6.44031     -2.21155         0.177465     -0.268377     -0.075713
Ni	      6.18655      4.27341     -2.07152        -0.157937      0.042804      0.037914
Ni	      2.00926      6.44020     -0.00156         0.066241     -0.142377     -0.097422
O	      2.12511      6.30341     -2.11846         0.198480     -0.335143     -0.058013
O	      2.04000      4.33151     -0.10041         0.069053     -0.026660     -0.487032
O	      2.07048      2.29677     -2.17289         0.083107      0.364209     -0.118934
O	      4.07711      4.43383     -2.08885        -0.230792      0.250182      0.034848
O	      6.14767      6.36847     -2.10661        -0.586325     -0.022420      0.029555
O	      0.05545      4.27036     -2.08557         0.520977      0.098563     -0.029942
O	      6.20633      4.11779      0.04094        -0.087091     -0.139887      0.099937
O	      6.22149      2.17718     -2.03249        -0.058289      0.059500      0.443631
