# total energy = -98.66100356 eV
 
CRYSTAL
PRIMVEC
-1.994993 3.967899 -1.994010 
1.948888 3.921122 1.947268 
5.955276 -0.022935 -2.010069 
PRIMCOORD
16 1
Li	      1.89785      3.72662      1.81161        -0.398446     -0.008347      0.580749
Li	      1.87265      1.86448     -0.02952        -0.458461     -0.890667      0.413014
Li	      3.78458      1.86483     -1.92539         0.080857     -0.754202     -0.321515
Li	      5.62487      3.72267     -1.91190         0.514380     -0.325754     -0.034722
Ti	      1.80930      3.75010     -1.85541        -1.198965     -2.011656     -4.467392
Ti	      3.88029      5.60779     -2.06502        -1.356497      4.134318     -1.773372
Ni	      3.73791      3.72389     -0.03657         1.773590     -1.000538      2.627933
Ni	      1.78598      5.60946      0.02143        -2.078116      2.671778      2.276769
O	      1.91209      5.54657     -1.90614        -2.426642      3.235411     -1.217341
O	      1.88473      3.75932     -0.11437        -1.770309     -2.379313      4.794197
O	      3.71384      5.67255     -0.10699         1.209164      0.862122      2.214561
O	      3.66646      3.83819     -1.89041         2.209133     -3.714030     -2.733800
O	      5.55735      5.59577     -1.93041         5.611280      0.993000     -0.314280
O	      0.06930      3.73452     -1.92654        -5.210661      0.091711     -0.087321
O	      5.59318      3.61199      0.03648         2.580266      0.316026      0.314290
O	      5.63840      1.85462     -1.85017         0.919428     -1.219860     -2.271771
