# total energy = -103.75871093 eV
 
CRYSTAL
PRIMVEC
-2.120993 4.218503 -2.119948 
2.071975 4.168772 2.070253 
6.331398 -0.024384 -2.137021 
PRIMCOORD
16 1
Li	      0.07316      0.04344     -0.02259         0.077323     -0.004248     -0.066605
Li	      2.11667      2.10743     -0.03336         0.077925      0.100729     -0.027788
Li	      4.27774      2.10783     -2.17628        -0.022645      0.098463      0.031005
Li	      0.02642      4.23214     -0.02401        -0.043321      0.057755     -0.027994
Ti	      2.04507      4.23876     -2.09717         0.084767      0.050322      0.645177
Ti	      4.38591      6.33850     -2.33410         0.482752     -0.483373     -0.257768
Ni	      4.22498      4.20913     -0.04134        -0.294150      0.028998     -0.262292
Ni	      2.01870      6.34040      0.02422         0.139256     -0.287559     -0.154039
O	      2.16124      6.26932     -2.15452         0.325349     -0.458707      0.000812
O	      2.13032      4.24918     -0.12928         0.046124      0.162378     -0.771048
O	      2.12580      2.24294     -2.19118        -0.048965      0.163362     -0.272764
O	      4.14422      4.33833     -2.13674        -0.247126      0.559893      0.190051
O	      6.28149      6.32493     -2.18195        -1.094580     -0.138606      0.038436
O	      0.07833      4.22114     -2.17758         0.837382      0.104985      0.110932
O	      6.32200      4.08265      0.04123        -0.190593     -0.176961      0.024499
O	      6.37312      2.09628     -2.09126        -0.129499      0.222569      0.799386
