# total energy = -102.70530364 eV
 
CRYSTAL
PRIMVEC
-2.162993 4.302038 -2.161927 
2.113005 4.251322 2.111248 
6.456773 -0.024866 -2.179338 
PRIMCOORD
16 1
Li	      0.11793      0.12937      0.01832         0.229120      0.002766     -0.142850
Li	      2.20133      2.19172     -0.03470         0.226383      0.263671     -0.116313
Li	      4.44883      2.19213     -2.26332        -0.073890      0.268526      0.113870
Li	      0.15534      4.40091     -0.06813        -0.103985      0.145909     -0.066439
Ti	      2.12686      4.40830     -2.18105         0.502951     -0.053762      1.430529
Ti	      4.56133      6.59202     -2.42745         0.772633     -1.266690     -0.325016
Ni	      4.39396      4.37747     -0.04299        -0.807431     -0.033440     -0.678484
Ni	      2.09944      6.59399      0.02519         0.475643     -0.695255     -0.469331
O	      4.41068      2.21803     -0.07876         0.791588     -0.921300      0.093997
O	      2.21552      4.41913     -0.13445         0.227723      0.579057     -1.677972
O	      2.25266      2.41683     -2.23701        -0.263218      0.365069     -0.647087
O	      4.30997      4.51185     -2.22220        -0.497944      1.276816      0.667253
O	      0.07596      6.60277     -0.08988        -2.229420     -0.377190      0.152667
O	      0.08146      4.38997     -2.26467         1.877528      0.093858      0.120139
O	      6.57486      4.24594      0.04288        -0.710618     -0.313069     -0.006695
O	      0.17125      2.20499      0.00444        -0.417063      0.665035      1.551732
