# total energy = -102.60259622 eV
 
CRYSTAL
PRIMVEC
-2.116659 4.387679 -2.121485 
2.133797 4.404352 2.135368 
6.373367 0.010195 -2.126216 
PRIMCOORD
16 1
Li	      0.11133      0.15835      0.02130         0.224034      0.001827     -0.549216
Li	      2.26665      2.27879     -0.06128         0.072552      0.250681     -0.100285
Li	      4.31061      4.52776      0.07890        -0.537778     -0.048357      0.065996
Li	      4.33178      2.24361     -2.13896        -0.115102      0.160210      0.158611
Ti	      0.05104      4.52303     -0.04260         1.975051      0.240411     -1.381404
Ti	      4.34592      6.80280     -2.12518        -0.650653     -0.305090      0.720132
Ni	      2.16529      6.79545      0.04391         0.533870     -0.720612     -0.512321
Ni	      2.23171      4.53021     -2.21154        -0.122655      0.309118      1.051108
O	      4.40724      2.34083     -0.04193         1.854283     -0.455060      0.115619
O	      2.10630      4.59718     -0.00412        -1.201839      0.485904     -0.712733
O	      2.24036      2.46300     -2.21101        -0.154708     -0.264001     -1.707263
O	      4.45507      4.69326     -2.20602         0.407955      0.800821      0.547958
O	      0.13307      6.63256     -0.02536        -1.635242     -1.331493      0.402656
O	      0.02280      4.45847     -2.09207         0.830997      0.096341      1.350593
O	      6.59715      4.38699     -0.05777        -0.781664     -0.517355     -0.668597
O	      0.17118      2.41955      0.01143        -0.699103      1.296653      1.219148
