# total energy = -102.17046356 eV
 
CRYSTAL
PRIMVEC
-2.126934 4.408978 -2.131784 
2.144155 4.425732 2.145734 
6.404306 0.010245 -2.136538 
PRIMCOORD
16 1
Li	      0.12283      0.18138      0.03192         0.264664      0.003498     -0.621977
Li	      2.28870      2.30097     -0.06188         0.082690      0.282456     -0.110175
Li	      4.35256      4.57183      0.07967        -0.613210     -0.060424      0.081152
Li	      4.37394      2.26544     -2.15978        -0.132579      0.182377      0.178921
Ti	      0.05153      4.56705     -0.04301         2.245064      0.278012     -1.551156
Ti	      4.38822      6.86900     -2.14587        -0.696031     -0.309890      0.771669
Ni	      2.18635      6.86159      0.04434         0.601935     -0.797283     -0.559738
Ni	      2.25343      4.57430     -2.23307        -0.142686      0.323528      1.181093
O	      4.43981      2.38501     -0.05269         2.055001     -0.514708      0.123471
O	      2.12680      4.64192     -0.00416        -1.314676      0.556688     -0.815293
O	      2.27257      2.50845     -2.22211        -0.178208     -0.284199     -1.890280
O	      4.49843      4.73894     -2.22749         0.453251      0.875314      0.631080
O	      0.16545      6.69716     -0.03598        -1.846621     -1.486780      0.461131
O	      0.02302      4.50186     -2.11243         0.948555      0.088387      1.481063
O	      6.66136      4.42968     -0.05833        -0.913212     -0.583429     -0.728665
O	      0.20393      2.44315      0.00117        -0.813936      1.446451      1.367704
