# total energy = -98.17586372 eV
 
CRYSTAL
PRIMVEC
1.974464 3.942987 1.974417 
2.017076 -3.985928 2.017012 
3.972741 0.000024 -3.972632 
PRIMCOORD
16 1
Li	      3.83826     -0.04052      3.74468        -0.048487     -0.167659      0.611553
Li	      3.75229     -1.91324      1.95432         0.168230     -0.777627      0.632890
Li	      5.66982     -0.04116      1.91358         0.609734     -0.171212      0.362658
Li	      5.69598     -1.91370      0.01173         0.829753     -0.400560      0.501111
Ti	      3.72203     -0.01958      0.06936         0.832638      2.330599     -0.262694
Ti	      3.85225     -1.89265     -1.93594        -2.517550     -2.279882     -2.962041
Ni	      5.66309     -0.01973     -1.87173         2.121443      1.096343     -1.988452
Ni	      1.91079     -1.89272      0.00492        -3.176927     -2.031391      0.315192
O	      3.79136     -1.80733     -0.07354         1.238490     -5.266429      2.365945
O	      1.98068     -0.01012      0.02322        -6.054783      1.514970     -0.706833
O	      3.86505      1.76803     -0.00003        -1.461438      4.969625     -0.272736
O	      5.59321     -1.90231     -1.89000         4.617260     -2.582306     -0.504072
O	      3.76798     -0.02940      1.81079         0.493483     -0.144132      5.965649
O	      3.78265     -0.10490     -1.79344        -2.321626      2.486765     -3.775375
O	      5.68153      1.86279     -1.80190         0.781931      2.440289     -2.254309
O	      5.58474      0.06553      0.00879         3.887846     -1.017392      1.971512
