# total energy = -102.01571763 eV
 
CRYSTAL
PRIMVEC
2.016032 4.025997 2.015984 
2.059541 -4.069842 2.059475 
4.056377 0.000025 -4.056266 
PRIMCOORD
16 1
Li	      4.00157     -0.04224      3.90400        -0.019086     -0.102287      0.291447
Li	      3.91194     -1.99465      2.03747         0.098600     -0.389946      0.343360
Li	      5.91107     -0.04292      1.99499         0.300416     -0.092192      0.163142
Li	      5.93833     -1.99512      0.01222         0.426456     -0.188911      0.241927
Ti	      3.88040     -0.02041      0.07231         0.394479      1.253310     -0.097535
Ti	      4.01616     -1.97318     -2.01831        -1.118107     -1.033543     -1.476429
Ni	      5.90405     -0.02057     -1.95138         1.024395      0.611104     -0.936481
Ni	      1.99208     -1.97325      0.00513        -1.660335     -0.972278      0.169049
O	      3.95268     -1.88423     -0.07667         0.615034     -2.602563      1.158327
O	      2.06495     -0.01055      0.02421        -2.964162      0.723921     -0.448732
O	      4.02951      1.84326     -0.00003        -0.811858      2.457129     -0.179448
O	      5.83119     -1.98324     -1.97042         2.220757     -1.336139     -0.196163
O	      3.92830     -0.03065      1.88784         0.374769     -0.160095      2.962251
O	      3.94359     -0.10936     -1.86974        -1.197213      1.115044     -1.853804
O	      5.92326      1.94205     -1.87856         0.440036      1.331059     -1.193532
O	      5.82236      0.06832      0.00917         1.875822     -0.613613      1.052620
