# total energy = -102.91903616 eV
 
CRYSTAL
PRIMVEC
2.130343 4.254275 2.130292 
2.176319 -4.300607 2.176249 
4.286378 0.000026 -4.286261 
PRIMCOORD
16 1
Li	      0.16156     -0.00083      0.05274         0.036499      0.076079     -0.186768
Li	      2.19182      2.07335      0.09882        -0.104144      0.205665     -0.202807
Li	      2.29374     -0.00159     -2.07890        -0.146148      0.051368     -0.072080
Li	      4.45452      2.07282     -2.16260        -0.244116      0.087007     -0.106536
Ti	      4.33292     -0.02279      0.08074        -0.393725     -0.749228      0.239826
Ti	      4.48451     -2.20329     -2.25368         0.627358      0.373729      0.546696
Ni	      2.30618     -0.02300      2.10733        -0.435653     -0.424669      0.356448
Ni	      2.22440     -2.20336      0.00573         0.993155      0.424712     -0.047411
O	      4.41363     -2.10396     -0.08561        -0.091476      1.464606     -0.631240
O	      2.30576     -0.01178      0.02703         1.790376     -0.107345      0.166615
O	      4.49941      2.05822     -0.00004         0.614951     -1.449063     -0.081832
O	      2.22483     -2.21455      2.08606        -1.353758      0.542701      0.229845
O	      4.38641     -0.03422      2.10799        -0.181815      0.018044     -1.838966
O	      4.40348     -0.12211     -2.08779         0.438820     -0.564672      1.001293
O	      2.32764      2.16850      2.18862        -0.583703     -0.672817      1.075374
O	      6.50135      0.07628      0.01023        -0.966620      0.723885     -0.448457
