# total energy = -102.10532199 eV
 
CRYSTAL
PRIMVEC
2.151127 4.295780 2.151075 
2.197551 -4.342564 2.197481 
4.328196 0.000027 -4.328078 
PRIMCOORD
16 1
Li	      0.20716     -0.00131      0.09620         0.039250      0.103580     -0.252567
Li	      2.25624      2.07164      0.12220        -0.138149      0.266824     -0.283091
Li	      2.38113     -0.00208     -2.07723        -0.186034      0.063937     -0.093249
Li	      4.56330      2.07109     -2.18357        -0.320877      0.110979     -0.133386
Ti	      4.41787     -0.02323      0.08232        -0.472303     -0.983872      0.276778
Ti	      4.57243     -2.24649     -2.29787         0.754679      0.442525      0.742841
Ni	      2.39362     -0.02345      2.10642        -0.535039     -0.577569      0.432952
Ni	      2.26801     -2.24657      0.00584         1.338162      0.520462     -0.047696
O	      4.50017     -2.14521     -0.08729        -0.128957      1.849539     -0.792450
O	      2.35097     -0.01201      0.02757         2.258511     -0.129731      0.269701
O	      4.58763      2.09858     -0.00003         0.809088     -1.850222     -0.088456
O	      2.31068     -2.25797      2.08474        -1.686386      0.728218      0.260902
O	      4.47241     -0.03489      2.14933        -0.309192      0.065906     -2.327129
O	      4.48982     -0.12451     -2.12872         0.580313     -0.652944      1.276444
O	      2.41551      2.21102      2.18931        -0.789554     -0.934911      1.380334
O	      6.62882      0.07778      0.01044        -1.213512      0.977279     -0.621926
