# total energy = -98.09411886 eV
 
CRYSTAL
PRIMVEC
1.944018 4.022619 1.943988 
1.978295 -4.057618 1.978238 
3.929047 0.000019 -3.928932 
PRIMCOORD
16 1
Li	      3.69681     -0.00020     -3.69499        -0.362162     -0.095195     -1.028395
Li	      1.85084      1.90884     -0.00251        -0.474115      0.619876     -0.027987
Li	      1.88048      0.00023     -1.87843        -1.152110     -0.028868     -0.929970
Li	      3.73171     -1.92654     -1.85009         0.243321     -0.675235     -0.886690
Ti	      1.80095     -1.92670      0.08063        -1.666222     -3.849315     -1.820168
Ti	      3.78558     -0.01631     -0.05736         1.903633      0.679669      2.905808
Ni	      3.73414      1.91087     -1.88531         0.672683      3.170291     -1.661704
Ni	      1.86887     -0.01634      1.85943        -1.302694      0.320386      2.992917
O	      3.68051     -1.80818      0.01303         1.552672     -5.197768     -0.151743
O	      1.93736     -0.13853     -0.00800        -4.272567      2.802591     -2.356762
O	      3.71523      1.77579      0.04758         0.449137      4.995277     -0.491304
O	      1.87285     -1.92006      1.81124        -0.534684     -2.385578      4.381850
O	      3.73636      0.10653      1.79082         2.133369     -0.545295      3.763314
O	      3.74054      0.06987     -1.79745        -0.529273     -1.836590     -6.231404
O	      1.91692      1.88754      1.85545        -2.366532      2.162833      0.972984
O	      5.52603     -0.10262     -0.01213         5.705545     -0.137079      0.569253
