# total energy = -102.59332474 eV
 
CRYSTAL
PRIMVEC
1.995177 4.128477 1.995146 
2.030356 -4.164397 2.030297 
4.032443 0.000019 -4.032325 
PRIMCOORD
16 1
Li	      3.89394     -0.00021     -3.89203        -0.186560     -0.037449     -0.434315
Li	      1.94953      2.01063     -0.00264        -0.167874      0.269903      0.029172
Li	      1.98076      0.00024     -1.97859        -0.484781     -0.020084     -0.388136
Li	      3.93070     -2.02927     -1.94874         0.101750     -0.286950     -0.376679
Ti	      1.89698     -2.02944      0.08493        -0.575397     -1.582057     -0.522195
Ti	      3.98744     -0.01718     -0.06041         0.945636      0.301342      1.259732
Ni	      3.93326      2.01277     -1.98584         0.302401      1.279924     -0.646327
Ni	      1.96853     -0.01720      1.95859        -0.392447      0.137479      1.226141
O	      3.87677     -1.90460      0.01372         0.477185     -2.026117     -0.106183
O	      2.04066     -0.14591     -0.00843        -1.696250      1.029877     -1.012428
O	      3.91334      1.87048      0.05012         0.192613      1.950224     -0.307382
O	      1.97272     -2.02245      1.90783        -0.247363     -1.003557      1.594060
O	      3.93560      0.11222      1.88632         0.896250     -0.229381      1.411734
O	      3.94000      0.07361     -1.89330        -0.356279     -0.778537     -2.473699
O	      2.01914      1.98820      1.95439        -0.962224      0.970459      0.423517
O	      5.82071     -0.10810     -0.01278         2.153338      0.024925      0.322988
