# total energy = -103.48243624 eV
 
CRYSTAL
PRIMVEC
2.077030 4.297851 2.076998 
2.113652 -4.335244 2.113591 
4.197877 0.000020 -4.197754 
PRIMCOORD
16 1
Li	      0.02212     -0.00024     -0.02017         0.075467      0.015200      0.251282
Li	      2.11277      2.17899     -0.00287         0.057091     -0.129189     -0.037469
Li	      2.14661      0.00026     -2.14427         0.223284      0.013754      0.171637
Li	      4.25983     -2.19919     -2.11192        -0.038309      0.132892      0.175255
Ti	      2.05583     -2.19937      0.09204         0.011011      0.708420      0.252606
Ti	      4.32133     -0.01861     -0.06547        -0.354417     -0.138849     -0.751254
Ni	      4.26261      2.18131     -2.15212        -0.112321     -0.543321      0.259747
Ni	      2.13336     -0.01864      2.12259         0.059522     -0.057304     -0.523443
O	      4.20139     -2.06408      0.01487        -0.309818      0.982737      0.079580
O	      2.21154     -0.15813     -0.00913         0.789115     -0.555503      0.281083
O	      4.24102      2.02710      0.05432        -0.099661     -0.967418      0.409167
O	      2.13790     -2.19179      2.06757         0.119536      0.325951     -1.010632
O	      4.26515      0.12161      2.04426        -0.224430      0.302996     -0.632100
O	      4.26992      0.07976     -2.05183         0.075429      0.124214      1.318932
O	      2.18821      2.15468      2.11804         0.847900     -0.374307     -0.216159
O	      6.30810     -0.11715     -0.01385        -1.119400      0.159727     -0.028232
