# total energy = -102.87700490 eV
 
CRYSTAL
PRIMVEC
2.097494 4.340194 2.097461 
2.134476 -4.377956 2.134415 
4.239235 0.000020 -4.239111 
PRIMCOORD
16 1
Li	      0.06432     -0.00025     -0.06233         0.136090      0.018672      0.402508
Li	      2.15461      2.22214     -0.00292         0.087572     -0.207524     -0.071560
Li	      2.18912      0.00027     -2.18673         0.353344      0.022356      0.268628
Li	      4.34419     -2.24274     -2.15374        -0.061352      0.213265      0.285550
Ti	      2.09653     -2.24292      0.09387         0.045656      1.110303      0.295329
Ti	      4.40690     -0.01898     -0.06677        -0.637716     -0.221078     -1.132992
Ni	      4.34701      2.22450     -2.19473        -0.182045     -0.839762      0.411146
Ni	      2.17560     -0.01901      2.16462         0.050805     -0.089321     -0.811341
O	      4.28458     -2.10495      0.01517        -0.394057      1.449540      0.131140
O	      2.25533     -0.16127     -0.00931         1.183330     -0.782164      0.484676
O	      4.32500      2.06724      0.05540        -0.160656     -1.437521      0.611594
O	      2.18023     -2.23520      2.10852         0.192957      0.541105     -1.422836
O	      4.34960      0.12402      2.08475        -0.397276      0.434839     -0.937161
O	      4.35447      0.08134     -2.09246         0.195855      0.245603      1.954552
O	      2.23154      2.19734      2.15998         1.202026     -0.637800     -0.352931
O	      6.43301     -0.11947     -0.01413        -1.614532      0.179487     -0.116301
