# total energy = -100.98311025 eV
 
CRYSTAL
PRIMVEC
2.138420 4.424881 2.138387 
2.176125 -4.463380 2.176062 
4.321952 0.000021 -4.321825 
PRIMCOORD
16 1
Li	      0.15119     -0.00026     -0.14912         0.240324      0.016537      0.727521
Li	      2.23951      2.30970     -0.00304         0.124507     -0.347507     -0.145045
Li	      2.27538      0.00028     -2.27290         0.565579      0.040938      0.426182
Li	      4.51537     -2.33112     -2.23861        -0.096304      0.347332      0.495880
Ti	      2.17915     -2.33131      0.09757         0.067551      1.772326      0.275428
Ti	      4.58055     -0.01972     -0.06940        -1.148179     -0.349061     -1.757620
Ni	      4.51830      2.31216     -2.28122        -0.271620     -1.284011      0.673221
Ni	      2.26133     -0.01976      2.24991        -0.061332     -0.131417     -1.251870
O	      4.45342     -2.18789      0.01576        -0.488701      2.135152      0.230294
O	      2.34420     -0.16762     -0.00968         1.773713     -1.090708      0.797813
O	      4.49542      2.14870      0.05758        -0.273044     -2.150911      1.000080
O	      2.26614     -2.32327      2.19160         0.317105      0.870299     -2.071190
O	      4.52100      0.12891      2.16690        -0.665719      0.687936     -1.419991
O	      4.52606      0.08455     -2.17492         0.453100      0.401216      2.932714
O	      2.31948      2.28393      2.24510         1.794156     -1.118782     -0.617319
O	      6.68650     -0.12418     -0.01468        -2.331137      0.200660     -0.296097
