# total energy = -103.25922688 eV
 
CRYSTAL
PRIMVEC
2.134165 4.157360 2.134411 
2.135960 -4.159479 2.136055 
4.371160 -0.000144 -4.371426 
PRIMCOORD
16 1
Li	      0.19445     -0.00037     -0.02540        -0.047296     -0.013213     -0.332485
Li	      2.13441      2.03646      0.12431         0.043089      0.253629     -0.035455
Li	      2.19831     -0.00083      2.15540         0.376303      0.077664      0.014085
Li	      2.22193     -2.03866      0.03824         0.021067     -0.239726     -0.140708
Ti	      4.27090     -0.00139      0.08224        -0.176333      0.130349      1.697473
Ti	      4.60884     -2.03856     -2.34685         0.157549     -1.003769     -0.562200
Ni	      2.28838     -0.00040     -2.12024        -0.769095     -0.026242     -0.495619
Ni	      4.49832      2.03689     -2.23820        -0.160817      0.582542      0.039652
O	      4.45668     -2.05408     -0.15553         0.292238      1.159390     -0.475274
O	      2.32489      0.02386     -0.05843         1.676011     -0.028001      0.187250
O	      4.50840      2.05134     -0.10343         0.384310     -1.153823     -0.248735
O	      2.14064     -2.14671      2.12204        -1.209239      0.464949      0.426610
O	      4.41119     -0.02667      2.02801         0.014261     -0.003851     -2.024437
O	      4.38019     -0.06886     -2.15198         0.376665     -0.361539      0.567392
O	      2.23147      2.14429      2.21312        -0.285370     -0.353352      1.461305
O	      6.50492      0.06630     -0.02707        -0.693343      0.514992     -0.078854
