# total energy = -102.91440401 eV
 
CRYSTAL
PRIMVEC
2.144627 4.177740 2.144874 
2.146430 -4.179869 2.146526 
4.392587 -0.000144 -4.392854 
PRIMCOORD
16 1
Li	      0.21740     -0.00039     -0.00461        -0.065997     -0.014688     -0.400589
Li	      2.16591      2.03599      0.13605         0.057607      0.304605     -0.051733
Li	      2.21992     -0.00084      2.17658         0.459390      0.098103      0.024584
Li	      2.25429     -2.03822      0.04913         0.027099     -0.288583     -0.176980
Ti	      4.31288     -0.00140      0.08305        -0.151001      0.156690      2.007121
Ti	      4.66465     -2.03812     -2.35940         0.152457     -1.228899     -0.609488
Ni	      2.33191     -0.00041     -2.12004        -0.906457     -0.031067     -0.606935
Ni	      4.55305      2.03642     -2.24967        -0.198358      0.704570      0.074035
O	      4.50048     -2.07426     -0.15705         0.375536      1.349986     -0.578155
O	      2.34774      0.02409     -0.05900         1.946807     -0.034053      0.197276
O	      4.55271      2.07150     -0.10444         0.459938     -1.341712     -0.329830
O	      2.18321     -2.16782      2.12136        -1.426641      0.576019      0.539827
O	      4.45454     -0.02693      2.04795         0.033180     -0.002381     -2.379336
O	      4.42324     -0.06954     -2.17313         0.440629     -0.399085      0.674119
O	      2.27493      2.16537      2.21333        -0.374798     -0.429836      1.700859
O	      6.56884      0.06695     -0.02733        -0.829390      0.580331     -0.084776
