# total energy = -102.50822606 eV
 
CRYSTAL
PRIMVEC
2.155089 4.198119 2.155337 
2.156901 -4.200258 2.156997 
4.414014 -0.000145 -4.414283 
PRIMCOORD
16 1
Li	      0.24056     -0.00040      0.01638        -0.084512     -0.015482     -0.469261
Li	      2.19761      2.03541      0.14790         0.071892      0.349271     -0.069893
Li	      2.24163     -0.00085      2.19787         0.540516      0.117215      0.035778
Li	      2.28684     -2.03767      0.06012         0.033893     -0.331539     -0.213254
Ti	      4.35506     -0.00141      0.08386        -0.123016      0.179696      2.297941
Ti	      4.72078     -2.03757     -2.37196         0.151375     -1.444916     -0.645971
Ni	      2.37575     -0.00043     -2.11974        -1.044481     -0.036145     -0.696831
Ni	      4.60810      2.03585     -2.26115        -0.220639      0.822590      0.105270
O	      4.54450     -2.09454     -0.15859         0.452524      1.521961     -0.677091
O	      2.37070      0.02433     -0.05958         2.192470     -0.038521      0.211365
O	      4.59723      2.09176     -0.10547         0.529533     -1.508475     -0.405790
O	      2.22609     -2.18901      2.12058        -1.631345      0.692353      0.645913
O	      4.49811     -0.02720      2.06797         0.042015     -0.004159     -2.704775
O	      4.46650     -0.07022     -2.19439         0.505787     -0.432107      0.767818
O	      2.31871      2.18654      2.21345        -0.462355     -0.509207      1.914876
O	      6.63309      0.06760     -0.02760        -0.953656      0.637467     -0.096094
