# total energy = -101.68076981 eV
 
CRYSTAL
PRIMVEC
1.966799 4.162476 1.966687 
1.973982 -4.169943 1.973675 
3.952703 -0.000079 -3.952311 
PRIMCOORD
16 1
Li	      5.70191      4.01296     -1.90870         0.717691      0.288132     -0.334972
Li	      3.81593     -2.01723      1.88976        -0.209778     -0.357590      0.180615
Li	      3.80351     -0.00348     -0.00354        -0.656178     -0.164516      0.137501
Li	      5.71373      2.00425     -0.01633         0.677333      0.119211      0.030147
Ti	      5.65135     -0.00585     -1.85094         1.494475     -0.576767     -3.426274
Ti	      3.86706      2.00206      1.83245         0.641886      1.377913      2.477646
Ni	      5.78919     -0.15612      1.95160        -0.178574      2.468020      0.820172
Ni	      5.70191     -2.01860      0.00260         0.661463     -1.942880     -0.678214
O	      3.75460     -2.10839     -0.00363         0.811671     -0.734221     -0.563559
O	      1.89369     -0.16455      0.04923        -1.222748      0.335471     -0.671895
O	      3.80392      2.09518      0.04606         0.156143     -0.512497     -2.435837
O	      1.91158     -1.85636      1.84758        -0.784889     -1.669519      1.476494
O	      3.75088      0.15195      1.90667         0.704910     -1.737315      1.112234
O	      3.86504      0.08665     -1.91335        -1.916637     -0.208413     -0.963025
O	      1.95203      1.84395      1.88833        -1.890065      2.260039      0.645273
O	      5.71345     -0.10014     -0.06494         0.993295      1.054932      2.193692
