# total energy = -99.59378398 eV
 
CRYSTAL
PRIMVEC
1.982556 3.969359 1.982306 
4.022343 -4.013375 0.030191 
3.992109 -0.000079 -3.991484 
PRIMCOORD
16 1
Li	      9.52681     -0.05661     -1.89228         0.704178      0.101615      0.004395
Li	      1.92248      1.90320     -0.00734        -0.678360      0.160221      0.081504
Li	      1.90745      0.00609     -1.88715        -0.392320      0.051453      0.248891
Li	      7.64856     -1.95202     -1.90675         0.357895     -0.464304     -0.442907
Ti	      5.65121      1.87023      0.06965         2.188146      2.062984      2.150906
Ti	      5.79794     -0.02523     -1.97083        -2.146873     -0.990410     -2.830780
Ni	      7.61759      1.87010     -1.89698         2.606950      2.482988     -0.605040
Ni	      3.83109     -0.02493     -0.00436        -0.912425     -0.894659      1.154971
O	      3.80803     -1.92237     -0.07477        -0.511086     -2.385933      1.789575
O	      5.73263      0.05981     -0.07373         2.236870     -2.384902      2.648348
O	      1.93511     -0.02333      0.09258        -2.372349     -0.155358     -0.582763
O	      3.90250      1.87206      0.01893        -3.804722      2.357858      0.101486
O	      5.65449     -1.83552     -1.88883         1.367607     -3.765816     -0.008840
O	      7.54674     -0.02719     -1.92013         5.227615     -1.226471      0.779333
O	      3.90107     -0.11037     -1.90549        -2.657069      0.935585     -2.570051
O	      5.71651      1.78492     -1.82753        -1.214056      4.115150     -1.919029
