# total energy = -103.63776339 eV
 
CRYSTAL
PRIMVEC
2.055216 4.114833 2.054956 
4.169759 -4.160462 0.031297 
4.138417 -0.000082 -4.137769 
PRIMCOORD
16 1
Li	     10.23790     -0.06083     -2.03352         0.133650      0.025527      0.013804
Li	      2.06598      2.04526     -0.00788        -0.114144      0.010996     -0.003963
Li	      2.04982      0.00654     -2.02800        -0.068499      0.015055      0.072341
Li	      8.21946     -2.09772     -2.04907         0.062531     -0.082515     -0.085802
Ti	      6.07303      2.00983      0.07485         0.212482      0.287795      0.415658
Ti	      6.23071     -0.02711     -2.11793        -0.277846     -0.174890     -0.500783
Ni	      8.18618      2.00969     -2.03858         0.460567      0.408813     -0.114281
Ni	      4.11706     -0.02679     -0.00468        -0.196469     -0.180411      0.134898
O	      4.09227     -2.06586     -0.08035        -0.064225     -0.500988      0.217352
O	      6.16053      0.06427     -0.07924         0.441952     -0.274331      0.409873
O	      2.07954     -0.02507      0.09949        -0.492496      0.062174     -0.022589
O	      4.19379      2.01179      0.02034        -0.480527      0.455429     -0.075365
O	      6.07655     -1.97252     -2.02982         0.266891     -0.547680      0.081984
O	      8.11004     -0.02922     -2.06345         0.743937     -0.250156      0.240480
O	      4.19226     -0.11860     -2.04771        -0.387679      0.143806     -0.518984
O	      6.14320      1.91815     -1.96394        -0.240127      0.601377     -0.264626
