# total energy = -102.19061946 eV
 
CRYSTAL
PRIMVEC
2.148634 4.301871 2.148364 
4.359293 -4.349574 0.032720 
4.326527 -0.000086 -4.325850 
PRIMCOORD
16 1
Li	      0.35532     -0.01870     -0.07782        -0.666540     -0.098388     -0.063901
Li	      2.25806      2.23542     -0.00861         0.349932      0.029756      0.042363
Li	      2.24041      0.00715     -2.21656         0.178048     -0.030577     -0.182940
Li	      4.62438      2.05681     -2.27231        -0.149879      0.201995      0.149839
Ti	      4.48904     -2.10518     -2.06656        -0.704929     -0.578260     -0.589688
Ti	      6.81001     -0.02964     -2.31485         1.011282      0.426194      0.657478
Ni	      2.47213     -2.10524     -0.05063        -1.264663     -0.961171      0.274771
Ni	      4.49984     -0.02928     -0.00512         0.642655      0.521867     -0.095769
O	      4.47274     -2.25794     -0.08782         0.738086      1.025463     -1.241729
O	      6.73330      0.07025     -0.08660        -0.733077      0.806584     -1.076087
O	      2.27289     -0.02741      0.10874         1.230130      0.108100      0.841718
O	      4.58371      2.19884      0.02224         1.654177     -0.709733     -0.038448
O	      6.64152     -2.15592     -2.21854        -0.918658      1.648309      0.132758
O	      8.86407     -0.03194     -2.25530        -2.415654      0.186000     -0.432206
O	      4.58203     -0.12963     -2.23810         0.967880     -0.869395      0.997401
O	      6.71437      2.09649     -2.14653         0.081211     -1.706745      0.624439
