# total energy = -101.72701808 eV
 
CRYSTAL
PRIMVEC
2.159014 4.322653 2.158742 
4.380353 -4.370586 0.032878 
4.347428 -0.000086 -4.346747 
PRIMCOORD
16 1
Li	      0.41136     -0.01911     -0.08899        -0.807629     -0.109343     -0.081835
Li	      2.27994      2.25707     -0.00870         0.391437      0.039323      0.057486
Li	      2.26211      0.00722     -2.23803         0.206998     -0.034346     -0.206320
Li	      4.69033      2.05562     -2.29416        -0.166408      0.225687      0.163396
Ti	      4.54294     -2.10468     -2.07614        -0.744077     -0.618780     -0.663485
Ti	      6.87597     -0.02992     -2.33727         1.084229      0.467051      0.707359
Ni	      2.52751     -2.10475     -0.06169        -1.417651     -1.039969      0.303595
Ni	      4.54342     -0.02957     -0.00517         0.724712      0.581965     -0.086151
O	      4.51606     -2.27980     -0.08866         0.842263      1.152108     -1.362124
O	      6.79852      0.07092     -0.08744        -0.818772      0.855264     -1.182836
O	      2.29490     -0.02767      0.10979         1.444971      0.101016      0.947079
O	      4.62810      2.22014      0.02245         1.795633     -0.780532     -0.020093
O	      6.70584     -2.17680     -2.24003        -1.028892      1.807637      0.136094
O	      8.94993     -0.03224     -2.27714        -2.641597      0.198349     -0.499351
O	      4.62641     -0.13089     -2.25978         1.054904     -0.980836      1.116643
O	      6.77940      2.11680     -2.16732         0.079880     -1.864594      0.670543
