# total energy = -92.57487932 eV
 
CRYSTAL
PRIMVEC
-0.000606 2.071912 2.078734 
6.120460 0.045394 -2.127229 
-2.025453 6.398316 -4.330989 
PRIMCOORD
16 1
Li	      2.04258      2.10912     -0.03756        -0.000689     -0.000451      0.001428
Li	      0.03051      4.42008     -0.29280        -0.025540     -0.000158      0.024896
Li	      4.09053      4.29413     -4.30705        -0.001073      0.000344      0.001365
Li	      2.02909      6.19553     -4.11373         0.025559      0.001665     -0.023487
Mn	     -1.99651      6.39125     -4.32384         0.031148      0.006285     -0.017950
Mn	      4.05637      2.15272     -2.16071        -0.018759     -0.001677      0.009626
Ni	      2.01808      4.28285     -2.21226         0.044684     -0.025529      0.014576
Ni	      0.04147      6.33264     -2.19420        -0.043235      0.027613     -0.015808
O	     -0.03441      4.29072     -2.23081        -0.103857     -0.108491      0.116899
O	     -0.06252      1.96670      0.11273        -0.015284     -0.038968      0.022302
O	      4.02968      6.57623     -4.51646        -0.080556      0.042466     -0.050589
O	      4.15049      4.08528     -2.01678         0.076658     -0.045257      0.053456
O	     -0.13820      6.38246     -4.32057        -0.095285      0.099178     -0.067151
O	      4.14760      2.25095     -0.18779         0.010118      0.038357     -0.018894
O	      2.09381      6.32471     -2.17569         0.105272      0.107852     -0.117254
O	      2.19846      2.16171     -2.16422         0.090842     -0.103228      0.066586
