# total energy = -89.54377808 eV
 
CRYSTAL
PRIMVEC
2.096272 3.920487 2.130452 
4.112399 -1.919098 -2.142473 
0.040781 3.905099 -4.278622 
PRIMCOORD
13 1
Li	      4.28981      5.72840     -2.08640        -0.016667      0.044318      0.074786
Mn	      4.02913      2.03676     -6.30335        -0.001004     -0.041635     -0.008954
Mn	      2.14763      1.92673     -0.04170        -0.005871     -0.018720     -0.002211
Mn	      4.11802      2.01448     -2.19286         0.001912     -0.015378     -0.011761
Mn	      2.04885      3.99023     -2.09055         0.039530     -0.018719     -0.026043
O	      2.21412      2.04236     -2.01250         0.094355      0.062672      0.002421
O	      3.90920      3.86155     -2.15216        -0.108970     -0.024913     -0.040166
O	      1.89309      3.94322     -4.02257        -0.026308      0.081351      0.091167
O	      4.15451      1.97048     -0.23621        -0.065868     -0.008751     -0.082696
O	      4.37009      0.02599     -2.26255         0.059004      0.106180      0.075559
O	      1.95386      3.86359     -0.12614        -0.019219     -0.098551     -0.108609
O	      4.22060      2.02005     -4.15420         0.050694     -0.009141      0.102082
O	      2.27399      5.92210     -2.42000        -0.001588     -0.058714     -0.065575
