# total energy = -94.83696770 eV
 
CRYSTAL
PRIMVEC
2.143064 4.071988 2.108674 
4.136001 -1.973525 -2.083115 
0.029033 4.057466 -4.218279 
PRIMCOORD
14 1
Li	      6.20983      4.11570     -2.05366         0.008749     -0.021687      0.052549
Li	      4.26286      6.04026     -2.13285        -0.003190     -0.000462      0.063929
Mn	      4.01439      2.17791     -6.18086        -0.027955      0.011051     -0.003409
Mn	      2.18651      2.01583      0.00761        -0.090510     -0.040926     -0.015286
Mn	      4.14183      2.06467     -2.12120         0.066587      0.013046     -0.032246
Mn	      2.15768      4.13361     -2.09662         0.058429      0.026807     -0.017395
O	      2.22285      2.15360     -1.97812         0.048341      0.020089     -0.059231
O	      4.03328      3.99355     -2.09741        -0.087539     -0.052939     -0.008979
O	      1.98945      4.18692     -3.99632         0.004543      0.052033      0.088374
O	      4.11359      2.05446     -0.14978        -0.083165      0.020538     -0.091544
O	      4.38070      0.12591     -2.19033         0.090168      0.050285     -0.023555
O	      1.96144      4.02596     -0.07087         0.005860      0.034190     -0.045750
O	      4.27749      2.00713     -4.10220         0.013073     -0.012176      0.137114
O	      2.28801      6.08161     -2.27346        -0.003393     -0.099848     -0.044572
