# total energy = -93.08960453 eV
 
CRYSTAL
PRIMVEC
0.000206 2.063530 2.061781 
6.190124 6.251777 -4.183918 
-4.134403 2.092478 -2.091069 
PRIMCOORD
16 1
Li	     -2.07117      4.16877     -2.10247         0.001712     -0.000074      0.000472
Li	      2.09560      6.18047     -4.11321        -0.008539     -0.000397      0.001567
Li	     -0.00623      4.15197     -0.02861         0.001443      0.001133      0.002172
Li	      4.08973      6.31584     -2.18011         0.008522     -0.000865     -0.004784
Mn	     -4.12875      2.09299     -2.08813         0.004392     -0.005360      0.001427
Mn	     -0.01061      6.24326     -2.11444        -0.006584      0.005085     -0.000211
Ni	      4.11577      8.32643     -4.19246        -0.011433     -0.000133     -0.004712
Ni	      2.06907      4.16876     -2.10287         0.011804     -0.001482      0.005430
O	      4.25564      6.26360     -4.19147         0.042824     -0.091630      0.089611
O	      0.00521      6.13109     -4.06554         0.117910     -0.033705      0.032666
O	      2.04609      8.45695     -4.32083        -0.120793      0.033895     -0.033618
O	     -2.20303      4.12425      0.00320        -0.061051      0.125027     -0.116806
O	     -0.00550      4.27441     -2.20763        -0.109573      0.020122     -0.018046
O	      1.92966      6.23174     -2.10328        -0.043332      0.092845     -0.091903
O	     -0.00030      1.96932      0.09624         0.110796     -0.019484      0.017128
O	      2.19844      4.18293     -0.05353         0.061902     -0.124978      0.119607
