# total energy = -95.51785688 eV
 
CRYSTAL
PRIMVEC
1.993564 4.254246 1.997432 
6.180233 -0.058863 -2.077242 
-2.111635 4.370177 -2.112656 
PRIMCOORD
14 1
Li	      0.09724      4.35811     -0.21728         0.024731      0.000679      0.024828
Li	      3.87313      6.48430     -2.00144         0.026147     -0.003783      0.020147
Mn	      4.01844      4.30636     -4.12490         0.010514      0.022239     -0.038023
Mn	      4.15644      2.12174     -2.15204        -0.040187      0.023905      0.005121
Mn	      1.97698      2.13788      0.00467        -0.004085     -0.017095      0.010728
Mn	      4.09630      4.26438     -0.12062         0.010558     -0.016213     -0.003843
O	      4.21740      6.17179     -0.09533         0.030606      0.038261     -0.014634
O	      2.00349      4.04547      0.12730        -0.014871      0.041794      0.032897
O	     -0.22325      4.59325     -2.15472        -0.057780     -0.039058      0.022114
O	      4.04801      2.34969     -0.21038         0.014221     -0.039624     -0.061162
O	      6.10202      1.87982     -1.96094        -0.049587      0.009485     -0.022423
O	      4.20681      4.06467     -2.17993        -0.027164      0.010729     -0.057754
O	      5.99224      6.61328     -2.09950        -0.004392     -0.015893      0.089071
O	      6.17786      4.42811     -0.17468         0.081290     -0.015426     -0.007067
