# total energy = -90.04485179 eV
 
CRYSTAL
PRIMVEC
-0.000225 2.053848 2.052898 
8.407688 0.018036 -0.017048 
0.027933 4.193992 -4.196401 
PRIMCOORD
13 1
Li	      2.12305      4.17740     -2.12500         0.000540      0.001530      0.000611
Mn	      8.34117      4.12431     -4.11917         0.025169     -0.009308      0.007987
Mn	      4.31380      2.20204     -2.19602        -0.025421      0.008796     -0.009073
Mn	      2.10987      2.08386     -0.02408        -0.000778      0.000141      0.000507
Mn	      6.31344      2.09325     -0.03283         0.000711     -0.000312      0.000671
O	      4.36846      2.26364     -0.20370         0.005665     -0.001788      0.001436
O	      8.25848      1.92263      0.13794        -0.005440      0.002398     -0.002626
O	      6.22801      1.97919     -1.97263        -0.076702     -0.064339      0.063825
O	      6.39907      0.15341     -0.14595         0.075937      0.064272     -0.064846
O	      2.33860      1.98525     -1.97923         0.054906     -0.043208      0.042265
O	      1.88087      0.12878     -0.12203        -0.055331      0.042397     -0.042288
O	      4.14054      4.05695     -1.99801        -0.022290     -0.161148      0.161285
O	      0.10612      4.30512     -2.24726         0.023034      0.160568     -0.159753
