# total energy = -90.13075365 eV
 
CRYSTAL
PRIMVEC
2.170835 -4.170749 2.171234 
4.126648 0.000084 -4.125671 
2.064619 4.064609 2.064768 
PRIMCOORD
13 1
Li	      4.77776     -0.05566     -0.54115         0.116009     -0.001662     -0.116060
Mn	      6.09701      4.06335     -1.96646        -0.078776     -0.001914      0.077358
Mn	      4.14077      4.06314     -0.01083         0.026101      0.000293     -0.025702
Mn	      2.01122      2.03095      0.05373        -0.020492     -0.001002      0.020723
Mn	      4.11927      1.97779      2.18135         0.008591     -0.000241     -0.008126
O	      4.03122     -2.22250      0.26061        -0.062964     -0.022333      0.108838
O	      3.97562      2.11358      0.20482        -0.109246      0.022548      0.064099
O	      2.23565     -2.25202      2.07458         0.057885     -0.036934     -0.066427
O	      2.16132      2.14312      1.99998         0.067838      0.037417     -0.057087
O	      1.92757      0.07427     -0.06307        -0.009570      0.039237     -0.032427
O	      4.29917     -0.18320      2.30848         0.031160     -0.037631      0.009360
O	      3.91849     -0.00011     -2.18119        -0.122749      0.010275     -0.095782
O	      6.41769     -0.10881      0.31816         0.096212     -0.008053      0.121233
