# total energy = -100.38482867 eV
 
CRYSTAL
PRIMVEC
2.039986 -4.355742 2.040281 
4.190388 -0.000223 -4.189761 
2.068214 4.384760 2.068758 
PRIMCOORD
15 1
Li	      6.23026      2.20532     -0.05227         0.000105     -0.001226      0.000155
Li	      6.11044      0.01376     -2.00132        -0.013734     -0.001530      0.013725
Li	      4.28082      0.01221     -0.17174         0.013153      0.000595     -0.013783
Mn	      6.20099      4.38287     -2.06347         0.051166      0.000711     -0.051060
Mn	      4.21916      4.38328     -0.08171        -0.052005     -0.000674      0.051131
Mn	      2.08074      2.19082     -0.01209         0.000081     -0.000121      0.001275
Mn	      4.13490      2.20535      2.04241        -0.000711     -0.000928      0.000888
O	      3.98930     -2.11598      0.08730        -0.052099     -0.044149     -0.009117
O	      4.02143      2.14181      0.11979         0.010255      0.045451      0.051198
O	      2.18000     -2.11589      1.89637        -0.008867     -0.044740     -0.052758
O	      2.21219      2.14185      1.92888         0.051848      0.046287      0.006681
O	      1.97514     -0.17116     -0.11809         0.009727     -0.003459      0.011586
O	      4.22643      0.19711      2.13415        -0.009100      0.002743     -0.010696
O	      4.06190     -0.17807     -2.22138         0.023936     -0.012761      0.024979
O	      6.33005      0.20378      0.04771        -0.023754      0.013802     -0.024204
