# total energy = -100.38544271 eV
 
CRYSTAL
PRIMVEC
2.075817 -4.213586 2.031999 
4.240257 -0.046026 -4.245642 
2.028844 4.213154 2.077886 
PRIMCOORD
15 1
Li	      4.10315      2.03688     -2.06190        -0.004974     -0.022064      0.040359
Li	      2.19524     -2.10475     -0.12495        -0.000066      0.045186     -0.039435
Li	      4.26450     -0.02559      0.01686        -0.017188      0.021592     -0.001656
Mn	      4.07646      0.00031      4.07947        -0.034011      0.014293     -0.021028
Mn	      2.21437      2.09991     -0.10782         0.046196      0.022285     -0.026013
Mn	      2.01684      0.00594      2.01635         0.015365     -0.019330      0.031583
Mn	      4.13080     -2.13662     -2.03170         0.006464     -0.033726      0.046412
O	      4.19125     -1.97214      0.04368        -0.002835      0.015283      0.008747
O	      1.92139      0.08992      0.08337         0.021285     -0.044739      0.023468
O	      4.28190      1.92512     -0.05026         0.019245      0.006201     -0.008163
O	      6.14718     -2.01740     -2.17746        -0.032200      0.032946      0.016799
O	      3.95224     -0.12087      2.13343        -0.005061      0.044250     -0.063047
O	      4.32534     -0.12399     -2.32880         0.000402      0.015348      0.051866
O	      2.06808      1.98239      1.90486         0.014961     -0.042491     -0.005016
O	      6.36789      0.08630     -0.28903        -0.027583     -0.055036     -0.054876
