# total energy = -91.49808031 eV
 
CRYSTAL
PRIMVEC
0.000002 2.055522 2.055657 
4.019142 -0.000046 0.000051 
0.000021 8.562725 -8.563302 
PRIMCOORD
16 1
Li	      2.01012      2.09322     -0.03681        -0.000174     -0.041804      0.040847
Li	      0.00037      2.00930     -2.00766         0.000358     -0.026566      0.025392
Li	      2.00985      6.50876     -4.45511         0.000008      0.026756     -0.024434
Li	      2.01019      8.50020     -6.44582         0.000206      0.003521     -0.004046
Mn	      0.00063     10.60735     -6.49688         0.000046     -0.006962      0.006935
Mn	      0.00021      6.39542     -2.28581         0.000231      0.068763     -0.069309
Ni	      2.00979      4.16140     -2.10673         0.000382      0.028761     -0.028616
Ni	      0.00039      8.52307     -4.41338         0.000841     -0.054891      0.055608
O	      2.01000      8.47337     -4.36374        -0.000771      0.006548     -0.007489
O	      0.00058      8.60115     -6.54662        -0.000492      0.157537     -0.156958
O	      2.00975      6.26927     -2.15943         0.000417      0.015780     -0.015694
O	      0.00027      6.31776     -4.26381         0.000368     -0.068648      0.070745
O	      2.00998      4.24953     -0.13911        -0.000438     -0.074517      0.073663
O	      0.00021      4.43892     -2.38495        -0.000155     -0.015806      0.015836
O	      2.01019     10.61080     -6.50021        -0.000686     -0.002169      0.001795
O	      0.00061      1.92294      0.13263        -0.000143     -0.016302      0.015726
