# total energy = -25.95135285 eV
 
CRYSTAL
PRIMVEC
-0.025261 2.216015 1.962616 
1.961680 -2.216920 -0.029529 
3.904733 2.163646 -1.971697 
PRIMCOORD
4 1
Li	      3.72848     -0.02279     -0.03649         0.506506      0.334427     -0.344732
Mn	      1.87710     -2.11149     -0.02958        -1.733178     -1.175055      0.952168
O	      3.79741      2.06021     -0.09983         0.551097      0.453364      0.240695
O	      1.78829      0.01752      0.06020         0.675576      0.387264     -0.848132
