# total energy = -26.20473013 eV
 
CRYSTAL
PRIMVEC
-0.025658 2.250822 1.993443 
1.992492 -2.251741 -0.029993 
3.966064 2.197630 -2.002666 
PRIMCOORD
4 1
Li	      3.84652     -0.02351     -0.03764         0.300044      0.227899     -0.217207
Mn	      1.93654     -2.17834     -0.03051        -1.106128     -0.738837      0.592120
O	      3.91764      2.12544     -0.10300         0.358266      0.295543      0.155423
O	      1.84490      0.01807      0.06211         0.447818      0.215396     -0.530336
