# total energy = -92.68949087 eV
 
CRYSTAL
PRIMVEC
-0.001595 2.066240 2.074275 
6.087039 -0.012004 -2.067664 
-2.073707 6.283923 -4.230980 
PRIMCOORD
16 1
Li	      2.16409      1.98778      0.07051         0.014209     -0.002283     -0.001957
Li	      4.01137      2.02513     -2.03929        -0.017933     -0.009383      0.003154
Li	      4.00023      4.13648     -4.11613        -0.017487     -0.002999     -0.024340
Li	      1.94484      6.37191     -4.35464         0.003424      0.006844      0.002328
Mn	      6.03324      2.06886     -0.02357        -0.027645     -0.006413      0.022868
Mn	      2.08304      4.16068     -2.08869         0.064585      0.001827     -0.008233
Ni	     -0.10589      4.16059     -0.02227        -0.009650     -0.047511      0.036620
Ni	     -0.03730      6.28922     -2.16997         0.015340     -0.030984      0.032766
O	      0.06823      4.15106     -2.08240         0.037798      0.019452     -0.027039
O	      0.01195      2.01998      0.04111        -0.009600     -0.095997      0.090556
O	      4.01166      6.40000     -4.37675        -0.120508      0.046097     -0.029766
O	      3.95005      4.19609     -2.11969        -0.155228     -0.009023     -0.001496
O	     -0.13995      6.25094     -4.20742        -0.051762      0.119472     -0.100429
O	      4.18684      2.05207     -0.01058         0.053187      0.024724      0.005081
O	      1.99427      6.11416     -1.96773         0.112362     -0.045873      0.041468
O	      1.97391      2.20437     -2.20567         0.108908      0.032047     -0.041584
