# total energy = -26.35568149 eV
 
CRYSTAL
PRIMVEC
-0.026848 2.355241 2.085922 
2.084927 -2.356203 -0.031385 
4.150056 2.299582 -2.095573 
PRIMCOORD
4 1
Li	      2.12677      2.33046     -0.00983        -0.105553     -0.110090      0.092306
Mn	      0.03545     -0.02894     -0.00203         0.463615      0.328450     -0.244207
O	      4.28956      2.32722     -0.11277        -0.154354     -0.144002     -0.062688
O	      2.02005      0.01979      0.06801        -0.203707     -0.074359      0.214590
