# total energy = -26.24451493 eV
 
CRYSTAL
PRIMVEC
-0.027245 2.390048 2.116749 
2.115739 -2.391024 -0.031849 
4.211387 2.333566 -2.126543 
PRIMCOORD
4 1
Li	      2.22135      2.36451     -0.01059        -0.188102     -0.216066      0.169997
Mn	      0.06778     -0.06513     -0.00256         0.870548      0.648730     -0.459303
O	      4.41728      2.39651     -0.11613        -0.303289     -0.296959     -0.100320
O	      2.08019      0.02037      0.07003        -0.379158     -0.135704      0.389626
