# total energy = -52.62425573 eV
 
CRYSTAL
PRIMVEC
-0.000011 1.988318 1.988037 
4.597432 0.000003 -0.000025 
-0.000155 4.052620 -4.048867 
PRIMCOORD
8 1
Li	      0.00409      3.98203     -0.06751        -0.022129     -0.133718      0.182311
Li	      2.26785      3.94035     -1.98370         0.022402      0.054139     -0.090076
Mn	      0.00233      5.90493     -1.98561        -0.127568      1.155509     -0.647539
Mn	      2.26685      2.02092     -0.06226         0.130498     -0.416926     -0.199577
O	      0.00238      1.87157      0.08851        -0.169437     -0.406901      0.158597
O	      2.26557      3.89800      0.01929         0.054871      0.864657     -0.481025
O	      0.00180      4.02684     -2.06837        -0.046884     -0.573063      0.208431
O	      2.26660      2.06301      1.85267         0.158246     -0.543697      0.868879
