# total energy = -52.31641529 eV
 
CRYSTAL
PRIMVEC
-0.000011 2.079155 2.078861 
4.807467 0.000003 -0.000026 
-0.000162 4.237765 -4.233841 
PRIMCOORD
8 1
Li	      0.00448      2.27503     -2.15268        -0.009181      0.261914     -0.261929
Li	      2.47980      4.30861     -2.16909         0.013685     -0.064941      0.095080
Mn	      0.00272      0.13987     -0.01620         0.130735     -2.038586      1.236126
Mn	      2.47870      2.20979     -0.06808        -0.133229      0.460948      0.051940
O	      0.00261      2.04648      0.09678         0.151831      0.974339     -0.415564
O	      2.47732      2.18315     -2.05776        -0.031198     -1.121808      0.802291
O	      0.00196      4.40318     -2.26167         0.054019      0.684833     -0.360559
O	      2.47844      0.17665     -0.05304        -0.176661      0.843300     -1.147385
