# total energy = -91.91402661 eV
 
CRYSTAL
PRIMVEC
4.121054 0.000014 -0.000213 
-2.060154 4.110148 -6.169201 
-2.060628 4.121605 2.063972 
PRIMCOORD
16 1
Li	      2.06274      2.00246     -0.00025         0.000361      0.048915      0.003433
Li	      0.00218      4.02392      0.04292         0.000998     -0.033505     -0.025389
Li	      0.00185      6.22627     -2.05720        -0.000957     -0.007177      0.002521
Li	     -2.05844      6.21069     -4.15501        -0.000375     -0.026019     -0.010852
Mn	      0.00240      8.17110     -4.13325        -0.000712     -0.006948     -0.058577
Mn	     -2.05857      4.13977     -2.03145        -0.000935      0.056121      0.022301
Ni	      0.00229      2.01403     -2.03975         0.000310      0.022302     -0.017163
Ni	      0.00196      4.19569     -4.13241        -0.002909     -0.007157      0.060613
O	     -2.05832      6.08272     -1.87934        -0.000168     -0.072201     -0.156019
O	     -2.05842      4.17967     -0.00170        -0.002536     -0.240193      0.155026
O	      0.00245      6.28709     -4.11092        -0.000740      0.142546      0.004956
O	     -2.05820      8.19860     -4.07752         0.001042     -0.003834     -0.145296
O	     -2.05862      4.17405     -4.10805        -0.000952     -0.019497     -0.139922
O	      2.06239      2.24544     -2.04880         0.005672      0.053371      0.000391
O	      0.00186      4.04252     -2.08223         0.004262      0.140559      0.109235
O	      0.00243      1.88678     -0.16078        -0.002359     -0.047283      0.194742
