# total energy = -52.09798552 eV
 
CRYSTAL
PRIMVEC
4.352197 -0.000049 -0.000322 
0.000322 -0.000164 -4.349873 
2.176205 4.446360 -2.174919 
PRIMCOORD
8 1
Li	      2.35133      0.17384     -2.34940        -0.168153     -0.079351      0.133990
Li	      4.52700      2.31169     -2.26295        -0.114993      0.138078     -0.105298
Mn	      0.08665      0.17592     -0.08755         0.255223     -1.328118     -0.493194
Mn	      2.26336      2.30888     -4.52443         0.263826      0.378090      0.232724
O	      2.26454      2.49162     -2.26252         0.103806      0.634300     -0.403309
O	      2.26407      0.17955     -0.17456         0.214138      1.125359      0.206889
O	      4.52751      2.12886     -4.52502        -0.542992     -0.233439      0.225524
O	      2.26504      4.44114     -4.52433        -0.010857     -0.634918      0.202674
