# total energy = -78.88399132 eV
 
CRYSTAL
PRIMVEC
0.000266 1.991891 1.990241 
6.880812 2.018357 -0.028054 
0.016762 4.049353 -4.050772 
PRIMCOORD
12 1
Li	      0.01794      2.02352     -2.01883        -0.002343     -0.261754      0.181856
Li	      2.27176      3.97593     -2.01601        -0.038168      0.160674     -0.188954
Li	      4.52033      5.92981     -2.01050        -0.225007      0.064642     -0.014866
Mn	      6.79189      5.92627     -3.96690         0.824638      1.286953     -1.311198
Mn	      2.26103      1.98190     -0.02037        -0.420134     -1.311646      0.816353
Mn	      4.52490      4.01323     -0.09071         0.303011      0.389979      0.228509
O	      0.00453      1.86596      0.09431        -0.508835     -0.445370      0.425834
O	      2.24597      3.88020      0.04241        -0.104423      0.651410     -0.288572
O	      4.52484      3.92756     -1.96667         0.085950      0.419516     -0.784932
O	      0.01304      4.02427     -2.06305        -0.365924     -0.615367      0.619545
O	      2.29370      6.03410     -2.11264         0.140040      0.452848     -0.188702
O	      4.51819      2.09665     -0.13491         0.311195     -0.791886      0.505126
