# total energy = -78.72606903 eV
 
CRYSTAL
PRIMVEC
0.000276 2.062669 2.060960 
7.125308 2.090075 -0.029051 
0.017357 4.193238 -4.194709 
PRIMCOORD
12 1
Li	      0.01924      2.16988     -2.16485         0.002585      0.276635     -0.231874
Li	      2.43608      4.26350     -2.16183         0.029625     -0.210801      0.205634
Li	      4.84728      6.35871     -2.15592         0.269474     -0.031650      0.001056
Mn	      0.14047      0.07159     -0.03006        -1.155437     -1.551755      1.576285
Mn	      2.42457      2.12524     -0.02184         0.516542      1.551609     -1.011736
Mn	      4.85218      4.30350     -0.09727        -0.296090     -0.312033     -0.124084
O	      0.00486      2.00093      0.10112         0.518099      0.669969     -0.612137
O	      2.40843      4.16085      0.04548         0.082386     -0.591811      0.345241
O	      4.85212      4.21163     -2.10891        -0.079331     -0.486337      0.719946
O	      0.01399      4.31534     -2.21226         0.654866      0.637695     -0.615899
O	      2.45960      6.47054     -2.26544        -0.176899     -0.697718      0.296605
O	      4.84499      2.24830     -0.14467        -0.365820      0.746197     -0.549035
