# total energy = -78.49291000 eV
 
CRYSTAL
PRIMVEC
0.000277 2.072780 2.071063 
7.160236 2.100320 -0.029193 
0.017442 4.213793 -4.215271 
PRIMCOORD
12 1
Li	      0.01943      2.19120     -2.18613         0.000090      0.337784     -0.283232
Li	      2.46002      4.30541     -2.18308         0.036030     -0.261660      0.249488
Li	      4.89491      6.42119     -2.17710         0.331330     -0.036527      0.001224
Mn	      0.17704      0.10325     -0.05116        -1.434212     -1.880156      1.910288
Mn	      2.44840      2.14613     -0.02205         0.639072      1.914906     -1.247359
Mn	      4.89987      4.34579     -0.09823        -0.350910     -0.364265     -0.129745
O	      0.00490      2.02059      0.10212         0.617782      0.830793     -0.760754
O	      2.43210      4.20174      0.04592         0.090051     -0.704986      0.429597
O	      4.89981      4.25302     -2.12964        -0.091039     -0.598737      0.855185
O	      0.01412      4.35775     -2.23400         0.825449      0.753977     -0.723069
O	      2.48377      6.53413     -2.28771        -0.212822     -0.883498      0.368847
O	      4.89261      2.27040     -0.14609        -0.450821      0.892368     -0.670470
