# total energy = -76.98357854 eV
 
CRYSTAL
PRIMVEC
2.241526 4.386908 2.220773 
4.496955 -2.208086 -2.205791 
2.233799 2.185471 -4.418247 
PRIMCOORD
12 1
Li	      2.47447     -0.01761     -2.34747         0.307292      0.182394      0.345324
Li	      4.75975      0.18333     -4.50084         0.100497     -0.210025      0.080961
Li	      7.10814      2.28514     -4.62345        -0.557060     -0.144867      0.262965
Mn	      0.18337     -0.07645     -0.08188        -0.083866      5.350498      0.350035
Mn	      2.36774      2.32416      0.00366         0.262764     -0.313123     -2.503259
Mn	      4.70925      2.25260     -2.29017        -0.276467     -0.442761      0.151505
O	      4.68059     -0.14652     -2.32555         0.538654      0.126843      0.180465
O	      6.87389      2.18476     -2.39074        -1.212989     -1.031308      0.564913
O	      4.55070      2.40336     -4.45862        -0.484964      0.233189      1.603788
O	      4.81963      2.31815     -0.12992         0.249838     -0.471285     -1.300178
O	      2.53261      2.24288     -2.16108         1.251525      0.005684      0.303370
O	      4.74741      4.74672     -2.46805        -0.095224     -3.285240     -0.039889
