# total energy = -91.21982607 eV
 
CRYSTAL
PRIMVEC
0.000253 2.091745 2.093418 
5.945657 6.312736 -4.223863 
-3.971821 2.110721 -2.113010 
PRIMCOORD
16 1
Li	     -1.97576      4.24039     -2.15497         0.002905     -0.000225     -0.001421
Li	     -0.02102      6.41147     -2.23974        -0.008201      0.001513     -0.003110
Li	      3.95330      8.36249     -4.18733         0.003489     -0.019244      0.024570
Li	      3.96382      6.26378     -2.08658         0.016194      0.009393     -0.007433
Mn	      1.97195      8.36584     -6.28135        -0.038595      0.011696     -0.007567
Mn	     -0.07538      4.20132     -0.02389        -0.032254     -0.017447      0.016399
Ni	      2.00682      6.27056     -4.18659         0.051914      0.045450     -0.046805
Ni	      2.02187      4.22510     -2.14225         0.006975      0.025265     -0.021445
O	      4.07647      6.31385     -4.22932         0.084560      0.018729     -0.014296
O	      0.00926      6.28098     -4.20128        -0.009985      0.017020     -0.012811
O	      2.00941      8.42788     -4.24482        -0.015922      0.017143     -0.025746
O	     -2.00543      4.24102     -0.05772         0.050070      0.003058     -0.015503
O	     -0.01870      4.05781     -1.97410        -0.067742     -0.016000      0.020889
O	      1.96675      6.31077     -2.13631        -0.012602     -0.059018      0.052273
O	     -0.00991      2.16693     -0.08417         0.000218      0.060804     -0.060111
O	      1.84038      4.26928     -0.09377        -0.031024     -0.098137      0.102117
