# total energy = -103.16418628 eV
 
CRYSTAL
PRIMVEC
2.218294 4.473853 2.188323 
4.479817 -2.249626 -2.207563 
0.006915 4.466123 -4.368840 
PRIMCOORD
16 1
Li	      4.68779      2.47868     -2.31457        -0.079607      0.389082     -0.011431
Li	      2.36317      4.61285     -2.42182        -0.117629     -0.388254     -0.147140
Li	      2.41142      2.34522     -4.62034         0.487876     -0.186219      0.256810
Li	      4.64719      4.62590     -4.55711        -0.148862     -0.078720      0.089524
Mn	      0.21231      0.08700     -0.29226         0.036294      1.954147      4.302485
Mn	      2.35041      2.33723      0.02898         0.235064     -0.654699     -1.389395
Mn	      2.38835      0.00453     -2.29165         0.778479      1.702522     -0.703809
Mn	      0.29529      2.45078     -2.33999        -1.693859      0.046698      0.343356
O	      2.23301      2.21660     -2.20614         0.245496     -0.105623      0.338019
O	      4.81440      4.72572     -2.16294         0.216383     -0.635715      0.751659
O	      2.42976      4.67307     -4.71090         0.373839     -0.388252      0.249404
O	      4.53373      2.54700     -0.02510        -1.131800      0.137258     -0.579711
O	      4.82797     -0.19809     -2.23938        -0.020596      0.719326     -0.033476
O	      2.25719      4.82693      0.12074         0.213387     -0.231667     -2.700148
O	      4.75613      2.13456     -4.74648         0.543786     -0.147934     -0.142517
O	      2.29070      7.19911     -2.39088         0.061749     -2.131951     -0.623630
