# total energy = -102.21195172 eV
 
CRYSTAL
PRIMVEC
1.975592 4.136352 2.038873 
3.938702 -2.065570 -2.032016 
-0.002023 4.130979 -4.065457 
PRIMCOORD
16 1
Li	      3.73360      2.00249     -1.89519         0.817068     -0.043340     -0.438877
Li	      3.72508      0.15749     -3.80919         0.098456     -0.916067     -0.392062
Li	      3.80050      5.76434     -2.00300         0.037875      1.175342     -0.026663
Li	      3.79229      3.91944     -3.92431         0.050637     -0.228554     -0.228550
Mn	      5.60557      5.90210     -3.85298         3.642603      0.650270     -1.450166
Mn	      1.88326      1.97399      0.00360        -1.071400     -2.544382      3.498321
Mn	      1.91924      0.01789     -1.96206        -2.263653     -1.323001      1.236858
Mn	      1.88211      3.94725     -1.93762        -2.499652      1.166853     -0.755395
O	      1.87420      2.11895     -1.77728        -1.012724     -1.732208     -2.320735
O	      3.66977      3.95519     -1.78987         3.089767      0.122381     -1.241810
O	      1.80800      4.10149     -3.99686        -0.588141      0.064758     -1.344365
O	      3.86377      1.94311      0.04866        -1.170952     -0.646489      0.729044
O	      3.66306      0.03198     -1.98087         2.745705     -0.616867      0.199164
O	      1.95532      3.79173      0.12191        -0.853154      2.105249      1.796930
O	      3.85582      1.96602     -4.02434        -0.680432     -0.205198      0.366594
O	      1.88981      5.77478     -2.09852        -0.342003      2.971255      0.371711
