# total energy = -105.21990951 eV
 
CRYSTAL
PRIMVEC
2.089369 4.374571 2.156295 
4.165538 -2.184529 -2.149043 
-0.002139 4.368889 -4.299593 
PRIMCOORD
16 1
Li	      4.17603      2.23979     -2.11977        -0.113562     -0.003738      0.069405
Li	      4.16650      0.17615     -4.26058        -0.022069      0.118231      0.050648
Li	      4.25086      6.44742     -2.24035         0.024486     -0.156650     -0.019838
Li	      4.24168      4.38389     -4.38934         0.009611      0.075162      0.042235
Mn	      0.01707      0.04257     -0.01722        -0.643549     -0.310197      0.357501
Mn	      2.10642      2.20790      0.00403         0.142946      0.387105     -0.502948
Mn	      2.14667      0.02001     -2.19456         0.244703      0.216645     -0.218388
Mn	      2.10514      4.41500     -2.16723         0.272221     -0.207149      0.098252
O	      2.09629      2.37004     -1.98789         0.109308      0.215749      0.291251
O	      4.10464      4.42388     -2.00198        -0.379759     -0.070226      0.248541
O	      2.02225      4.58751     -4.47048         0.153680     -0.080739      0.171589
O	      4.32163      2.17337      0.05443         0.140711      0.182302     -0.183435
O	      4.09713      0.03577     -2.21561        -0.313997      0.159999      0.028838
O	      2.18702      4.24105      0.13636         0.149228     -0.224093     -0.304965
O	      4.31274      2.19899     -4.50123         0.157334      0.103852     -0.059974
O	      2.11375      6.45909     -2.34720         0.068707     -0.406253     -0.068713
