# total energy = -104.88173531 eV
 
CRYSTAL
PRIMVEC
2.110056 4.417883 2.177645 
4.206781 -2.206158 -2.170320 
-0.002161 4.412145 -4.342164 
PRIMCOORD
16 1
Li	      4.25914      2.28436     -2.16195        -0.198543      0.014311      0.120899
Li	      4.24942      0.17966     -4.34536        -0.023330      0.242583      0.084742
Li	      4.33545      6.57572     -2.28493         0.034833     -0.308777     -0.025233
Li	      4.32608      4.47113     -4.47668         0.016411      0.130654      0.079689
Mn	      0.07993      0.10900     -0.06048        -1.221374     -0.650100      0.725764
Mn	      2.14834      2.25184      0.00411         0.264472      0.720663     -0.922558
Mn	      2.18939      0.02041     -2.23823         0.424674      0.388591     -0.434569
Mn	      2.14703      4.50286     -2.21035         0.472360     -0.389347      0.171440
O	      2.13801      2.41721     -2.02745         0.226180      0.391591      0.514665
O	      4.18632      4.51192     -2.04181        -0.674090     -0.150789      0.493605
O	      2.06249      4.67880     -4.55945         0.329774     -0.141034      0.334009
O	      4.40763      2.21661      0.05552         0.201324      0.397295     -0.334862
O	      4.17867      0.03648     -2.25970        -0.517721      0.306158      0.048690
O	      2.23055      4.32544      0.13907         0.262450     -0.419012     -0.608569
O	      4.39856      2.24275     -4.59080         0.301511      0.212783     -0.124234
O	      2.15582      6.58763     -2.39390         0.101069     -0.745571     -0.123478
