# total energy = -101.42063331 eV
 
CRYSTAL
PRIMVEC
3.949640 -0.000108 -0.000171 
1.974941 3.930399 -6.075066 
-1.975021 4.004721 2.078472 
PRIMCOORD
16 1
Li	     -0.00043      3.84749     -0.08520        -0.696182      0.432475      0.225183
Li	      1.87576      3.80026     -1.93053        -0.345937      0.405746      0.218343
Li	     -0.00146      5.62750     -1.84525        -0.771471      0.189916      0.106802
Li	      1.87594      5.58132     -3.68858        -0.419556      0.409139      0.008686
Mn	      3.75129      7.45799     -3.77582         0.319176      2.307029     -0.980221
Mn	      1.87560      1.97036      0.00042         1.112956     -1.781159      3.071629
Mn	      3.75148      1.89058     -1.95964         2.337215     -3.821042     -1.048180
Mn	      3.75175      3.73294     -3.79066         1.574859     -1.332961     -2.164981
O	      3.75213      3.69150     -2.05047         0.734181      2.028108      3.082419
O	     -0.00023      1.94746     -0.16190        -2.164921     -0.510488      2.741053
O	      1.87536      5.73628     -1.72513        -0.145923      0.657190     -0.592996
O	      1.87491      3.89472      0.14189         0.024828      1.264193      1.090577
O	      1.87560      3.73787     -3.92732        -1.773591     -0.355524      0.715545
O	      3.75197      5.53345     -3.91629         0.713986      1.582744     -0.186771
O	      1.87581      1.88527     -1.82288        -1.009183     -0.939807     -2.745600
O	      3.75153      3.67699     -5.58851         0.509562     -0.535560     -3.541489
