# total energy = -105.01620486 eV
 
CRYSTAL
PRIMVEC
4.095153 -0.000112 -0.000178 
2.047702 4.075203 -6.298884 
-2.047785 4.152264 2.155047 
PRIMCOORD
16 1
Li	     -0.00047      4.13621     -0.09159        -0.164253      0.091305      0.003596
Li	      2.01652      4.08544     -2.07540        -0.053921      0.105714      0.066690
Li	     -0.00157      6.04980     -1.98373        -0.185339      0.019231      0.013281
Li	      2.01672      6.00015     -3.96538        -0.070844      0.062392      0.046805
Mn	      4.03279      8.01765     -4.05916         0.136748      0.596243     -0.275021
Mn	      2.01635      2.11823      0.00044         0.160303     -0.379302      0.604294
Mn	      4.03300      2.03245     -2.10669         0.529839     -0.894001     -0.045611
Mn	      4.03328      4.01307     -4.07512         0.290250     -0.202582     -0.612515
O	      4.03370      3.96852     -2.20434         0.147873      0.401408      0.561191
O	     -0.00024      2.09360     -0.17406        -0.509903     -0.111704      0.622180
O	      2.01608      6.16674     -1.85459        -0.080967      0.205792     -0.131492
O	      2.01561      4.18699      0.15253        -0.051779      0.275297      0.245597
O	      2.01636      4.01837     -4.22204        -0.335205     -0.072549      0.400249
O	      4.03352      5.94869     -4.21017         0.160247      0.293910      0.015935
O	      2.01657      2.02674     -1.95967        -0.125656     -0.203187     -0.741544
O	      4.03305      3.95292     -6.00788         0.152608     -0.187965     -0.773634
