# total energy = -103.09243606 eV
 
CRYSTAL
PRIMVEC
2.326660 4.307413 2.194875 
4.610611 -2.121592 -2.215053 
0.038614 4.291684 -4.400071 
PRIMCOORD
16 1
Li	      2.59787      0.02084     -2.37828         0.401532      0.506975     -0.033874
Li	      0.15893      2.33279     -2.27932        -0.305560      0.186549      0.096779
Li	      2.62360      4.55952     -2.26576         0.044643     -0.506170      0.029900
Li	      4.87281      4.51315     -4.59635        -0.067949     -0.357136      0.184368
Mn	      0.23905      0.13678     -0.29929        -0.367100      1.708115      2.153186
Mn	      2.43245      2.24572     -0.05828        -0.055751      0.089059     -2.070524
Mn	      4.85959      2.29994     -2.33747        -1.965670      0.400709     -0.425306
Mn	      2.44026      2.24713     -4.59568         1.844609      0.328091      0.669517
O	      2.67282      2.25318     -2.18817         0.923571      0.306199      0.353282
O	      4.86667      4.64610     -2.33846        -0.741087     -0.430545      0.005259
O	      2.26916      4.52916     -4.59345         0.216980     -0.931191      0.323929
O	      5.00290      2.28495     -0.12975        -0.419215      0.090790     -0.882384
O	      4.87973     -0.09878     -2.30958         0.073588      0.973908     -0.197615
O	      2.18090      4.42283     -0.08717         0.362270     -0.598339     -0.824009
O	      4.61828      2.27574     -4.51403        -0.550463      0.211173      0.928747
O	      2.67197      6.86804     -2.45685         0.605603     -1.978188     -0.311256
