# total energy = -104.72888771 eV
 
CRYSTAL
PRIMVEC
-0.000185 1.980251 1.980548 
9.120702 2.037095 -2.036048 
0.025950 4.029625 -4.028901 
PRIMCOORD
16 1
Li	      0.02650      2.00450     -1.99779         0.057245     -0.445612      0.370825
Li	      2.26724      3.93686     -1.98797        -0.053544      0.287648     -0.235609
Li	      4.47324      3.96696     -3.96226        -0.254007      0.108393     -0.155038
Li	      6.72029      5.89923     -3.95324        -0.250115      0.116600     -0.058532
Mn	      8.96329      5.89552     -5.89034         1.381922      1.969333     -2.705663
Mn	      2.23675      1.95841     -0.01678        -0.574507     -1.170600      1.883993
Mn	      4.47885      1.99130     -1.99000        -0.172531     -0.596131     -0.285371
Mn	      6.71562      4.00351     -2.05829         0.488630      0.507881      0.374673
O	      4.45834      3.86945     -1.92614        -0.001347      1.076616     -0.572723
O	      6.71968      3.91930     -3.91409         0.012048      0.657633     -1.220471
O	      4.48943      2.05464     -0.11347         0.405702     -0.618797      1.121984
O	      6.70700      2.10641     -2.10318         0.566293     -1.108303      0.670671
O	      0.00853      1.84603      0.09730        -1.023835     -0.628024      0.850129
O	      2.22350      1.89460     -1.89406        -0.199241      0.444756     -0.950059
O	      0.01998      3.98388     -2.03849        -0.552147     -0.848475      1.486862
O	      2.28219      4.03016     -4.02803         0.169434      0.247083     -0.575668
