# total energy = -103.99727534 eV
 
CRYSTAL
PRIMVEC
-0.000195 2.081285 2.081596 
9.586044 2.141028 -2.139928 
0.027274 4.235218 -4.234457 
PRIMCOORD
16 1
Li	      0.02927      2.21426     -2.20684        -0.048990      0.492772     -0.489372
Li	      2.50450      4.34884     -2.19600         0.029807     -0.327690      0.331004
Li	      4.94134      4.38207     -4.37688         0.309571     -0.108948      0.139009
Li	      7.42353      6.51655     -4.36692         0.309341     -0.057256      0.031782
Mn	      0.28792      0.13621     -0.13235        -2.396860     -2.500029      3.321991
Mn	      2.47082      2.16335     -0.01854         0.861455      1.590187     -2.436691
Mn	      4.94753      2.19968     -2.19824         0.228195      0.453402      0.055110
Mn	      7.41836      4.42245     -2.27367        -0.612083     -0.379804     -0.137678
O	      4.92487      4.27437     -2.12770        -0.089381     -0.952117      0.678794
O	      7.42286      4.32942     -4.32368         0.015752     -0.794566      1.131726
O	      4.95923      2.26965     -0.12534        -0.446176      0.663126     -0.990228
O	      7.40885      2.32683     -2.32327        -0.757982      1.053812     -0.750856
O	      0.00941      2.03920      0.10749         1.102836      0.978197     -1.693687
O	      2.45618      2.09286     -2.09226         0.167566     -0.585879      0.853294
O	      0.02207      4.40077     -2.25181         1.379510      0.909957     -1.107511
O	      2.52100      4.45189     -4.44953        -0.052561     -0.435164      1.063315
