# total energy = -104.68348093 eV
 
CRYSTAL
PRIMVEC
-2.182579 4.285339 -2.184966 
2.170830 4.270848 2.171309 
2.185979 0.008729 -6.543424 
PRIMCOORD
16 1
Li	      0.06315      4.39130      0.04363         0.012440     -0.029383     -0.092223
Li	      0.01837      2.16111     -2.28908         0.190095      0.180381     -0.134054
Li	      2.18154      4.35661     -2.22573        -0.105766     -0.058015     -0.342161
Li	      2.29429      2.20637     -4.40956        -0.177175      0.068317      0.058854
Mn	      0.05172      0.02307     -0.13495        -0.283561      2.716058      1.088978
Mn	     -0.06824      6.60368     -2.26667         0.028179     -1.565692     -0.614232
Mn	     -0.02229      4.41459     -4.53724         0.505155      0.657148      0.367747
Mn	      2.25691      6.60445     -4.48574        -0.043757     -1.110739      0.463441
O	      2.13350      2.15351     -2.37893         0.380653     -0.835559      0.366717
O	     -0.12122      4.50283     -2.39806         0.120666      0.587514     -0.415704
O	     -0.09960      2.42123     -4.53690        -0.612579      0.047781     -0.629352
O	      0.10693      2.07960      0.07660         0.322839     -0.013060     -0.556070
O	      2.14104      4.23815     -0.05157        -0.261036      0.212313     -0.669320
O	      0.07231      4.28288     -6.60246         0.087886     -0.209585      0.732260
O	      0.09428      6.72475     -0.02257        -0.020565     -1.289374      0.558641
O	      2.38141      4.53676     -4.43412        -0.143473      0.641897     -0.183525
