# total energy = -101.40915366 eV
 
CRYSTAL
PRIMVEC
2.020373 4.032732 2.016466 
1.995809 -4.008480 1.991862 
4.004421 -0.000091 -3.996577 
PRIMCOORD
16 1
Li	      3.81743      1.91236     -1.86589         0.276052      0.841731     -0.338583
Li	      3.81391      1.92493      1.88874         0.085822      0.280252      0.271396
Li	      3.86838      0.01339     -0.04983        -0.177957      0.199430      0.840949
Li	      3.78265     -1.89936     -1.82315        -0.125120     -1.165946     -0.062855
Mn	      3.77887      0.00008     -3.76859        -0.144154     -0.021864     -6.123639
Mn	      3.82690     -1.89037      1.86965         1.268776     -0.520555      2.383739
Mn	      1.90542      0.00101     -1.89659        -2.587661     -0.368539     -2.389261
Mn	      5.70285      0.01022     -1.88097         4.363054      0.625258     -0.364825
O	      3.82531     -2.02026      0.09833         0.423418     -0.289440     -2.549799
O	      1.76030     -0.05049     -0.10513        -0.011762      0.346030      1.614232
O	      3.70328      2.04817     -0.01472         1.304305      0.506141     -0.247450
O	      2.02527     -1.77094      1.90721        -2.851807     -2.688212      0.676476
O	      3.69464      0.07239      2.04905         0.484358     -0.470452      0.990884
O	      3.90636     -0.06427     -1.99895        -1.314484     -0.021783      3.032069
O	      1.89287      1.79131      1.77247        -1.332010      2.599802      1.353569
O	      5.82731      0.08878      0.12862         0.339170      0.148145      0.913097
