# total energy = -89.66308166 eV
 
CRYSTAL
PRIMVEC
0.000314 2.074991 2.086014 
6.351845 6.346026 -4.293941 
-4.260155 2.137266 -2.151232 
PRIMCOORD
16 1
Li	     -2.00005      4.43237     -2.38924         0.012214      0.016867     -0.007996
Li	      0.05249      6.35411     -2.22064        -0.032126      0.001214     -0.005281
Li	      2.03239      4.20884     -2.13812         0.032075      0.002216      0.003276
Li	      4.08508      6.13135     -1.97079        -0.010418     -0.020117      0.010337
Mn	      6.34809      6.34840     -4.29497         0.000409     -0.004479      0.003306
Mn	      4.21830      8.45438     -4.32768        -0.002529      0.001440     -0.000629
Ni	      2.00780      6.27295     -4.21286         0.093410      0.098849     -0.092894
Ni	      0.07730      4.29070     -0.14652        -0.094583     -0.097485      0.091445
O	      4.11405      6.49299     -4.45017         0.045748     -0.002414      0.011772
O	      0.12636      6.32414     -4.26557        -0.174812      0.006376     -0.019702
O	      2.03602      8.57181     -4.45935        -0.056510      0.007606     -0.008698
O	     -2.02938      4.06986      0.08879        -0.045515      0.002115     -0.009200
O	     -0.05912      4.13149     -2.06678        -0.011499      0.122312     -0.126950
O	      2.14410      6.43245     -2.29258         0.016187     -0.125512      0.126086
O	      0.04863      1.99089      0.09839         0.054746     -0.004711      0.004923
O	      1.95895      4.23925     -0.09394         0.173205     -0.004275      0.020204
