# total energy = -103.04377450 eV
 
CRYSTAL
PRIMVEC
2.222410 4.436006 2.218113 
2.195390 -4.409328 2.191048 
4.404863 -0.000100 -4.396235 
PRIMCOORD
16 1
Li	      4.61909      2.31395     -2.25773        -0.058038     -0.413413      0.147233
Li	      2.39243     -2.10684      0.06726        -0.014931     -0.017437     -0.089803
Li	      4.68074      0.01620     -0.06029         0.136263     -0.082171     -0.632943
Li	      4.57700     -2.29822     -2.20601         0.138739      0.514169     -0.039970
Mn	      0.16757      0.00020     -0.16375        -0.017647      0.005834      5.736337
Mn	      2.43516      2.12198      0.07123        -0.409216      0.255135     -0.716109
Mn	      2.30556      0.00123     -2.29487         1.511945      0.197617      0.804323
Mn	      2.49558      0.01246      2.12026        -2.517031     -0.349442      0.545848
O	      4.62862     -2.44452      0.11898        -0.386113      0.139664      0.867396
O	      2.12996     -0.06109     -0.12721         0.777186      0.288202     -0.443560
O	      4.48097      2.47828     -0.01781        -0.979495     -0.347096      0.120809
O	      2.45058     -2.14284      2.30773         1.301882      0.904820     -0.859034
O	      4.47051      0.08760      2.47935        -0.054908     -0.087091     -3.441953
O	      4.72670     -0.07777     -2.41873         0.619477     -0.089735     -0.276905
O	      2.29037      2.16748      2.14469         0.861133     -0.903978     -1.271618
O	      7.05104      0.10744      0.15563        -0.909246     -0.015079     -0.450050
