# total energy = -105.51945913 eV
 
CRYSTAL
PRIMVEC
-0.000496 2.032909 2.031646 
9.350591 0.000098 -0.000050 
0.000118 4.131238 -4.132964 
PRIMCOORD
16 1
Li	      7.05255      4.13485     -2.09508         0.012489     -0.041402      0.042602
Li	      4.70133      0.00150      0.00087         0.009114     -0.027142      0.037289
Li	      0.04659      2.09879     -2.09584        -0.071036      0.051211     -0.043380
Li	      2.34765      4.13378     -2.09645         0.007495     -0.006074      0.009736
Mn	      0.00137      4.09673     -4.09219         0.051244     -0.239868      0.388547
Mn	      2.35042      2.06363     -0.01453         0.071805     -0.066708     -0.071012
Mn	      4.69972      2.13982     -2.13290         0.050138      0.110260      0.023102
Mn	      7.04869      2.06380     -0.01434        -0.093695      0.043426     -0.183513
O	      4.69974      2.18932     -0.13906        -0.039449      0.095616     -0.173872
O	      7.07048      1.99693     -1.99016        -0.132998     -0.144127      0.219083
O	      4.69969      4.09195     -2.04415        -0.019217     -0.229514      0.140544
O	      7.02911      0.08773     -0.08062        -0.031306      0.213201     -0.128072
O	      0.00073      1.93948      0.10958         0.139730      0.074057     -0.164752
O	      2.32995      1.99631     -1.99073         0.006914     -0.121035      0.206695
O	      0.00034      4.18699     -2.14021         0.074087      0.047149     -0.134429
O	      2.36930      0.08797     -0.08037        -0.035315      0.240951     -0.168569
