# total energy = -104.08376858 eV
 
CRYSTAL
PRIMVEC
-0.000511 2.093593 2.092292 
9.629713 0.000101 -0.000052 
0.000121 4.254559 -4.256336 
PRIMCOORD
16 1
Li	      7.47988      4.38540     -2.22203         0.100108     -0.270688      0.237845
Li	      4.98619      0.12859     -0.12613         0.051297     -0.175001      0.202534
Li	      0.33687      2.22597     -2.22283        -0.506706      0.322076     -0.335716
Li	      2.48990      4.38426     -2.22349         0.041801     -0.054304      0.025452
Mn	      0.00133      0.09040     -0.08380         0.508470     -1.552652      2.538207
Mn	      2.49283      2.18867     -0.01541         0.462830     -0.299442     -0.230104
Mn	      4.98449      2.26947     -2.26214         0.308403      0.465933      0.056615
Mn	      7.47578      2.18885     -0.01522        -0.797443      0.438854     -0.995624
O	      4.98450      2.32197     -0.14749        -0.242536      0.644788     -0.956684
O	      7.49889      2.11793     -2.11075        -0.646051     -0.908677      1.210786
O	      4.98445      4.33990     -2.16801        -0.130559     -1.221685      0.899066
O	      7.45502      0.09305     -0.08551        -0.446830      1.214976     -0.811798
O	      0.00077      2.05699      0.11622         0.982815      0.459413     -1.195973
O	      2.47113      2.11728     -2.11136        -0.077888     -0.818116      1.114793
O	      0.00035      4.44069     -2.26989         0.544406      0.390852     -0.729732
O	      2.51287      0.09330     -0.08524        -0.152118      1.363673     -1.029667
