# total energy = -105.18945267 eV
 
CRYSTAL
PRIMVEC
2.000700 4.609911 2.002427 
2.001080 -4.610256 2.002593 
4.006425 -0.000209 -4.008226 
PRIMCOORD
16 1
Li	      3.94468      2.26748     -1.97366        -0.098537     -0.050004     -0.270700
Li	      5.86123      0.00018     -1.91986         0.155943     -0.161729     -0.158851
Li	      3.99679     -0.00378     -0.05389        -0.110885     -0.168958      0.103880
Li	      5.91551      2.26822     -0.00111         0.271298     -0.049481      0.099325
Mn	      5.89696      4.53911     -1.95556         0.864503      0.612238     -0.862422
Mn	      1.97120      2.26876      0.00017        -1.142621      0.021614     -0.914628
Mn	      3.96234      4.53893     -0.02030        -0.433604      0.630612      0.437311
Mn	      3.94192      2.26856      1.97246         0.912346      0.020555      1.139091
O	      3.86888     -2.26955      0.07389         0.434225     -0.209086     -0.429610
O	      1.89788     -0.00164     -0.07274        -0.498503     -0.146304      0.128439
O	      3.86836      2.26690      0.07415         0.840059      0.023033     -0.830340
O	      2.04480     -2.27051      1.89843        -0.506085     -0.254543      0.496748
O	      4.01549     -0.00207      2.04514        -0.141318     -0.145641      0.512073
O	      3.86779     -0.00097     -2.05041         0.209873     -0.104667     -0.156434
O	      2.04425      2.26614      1.89864        -0.910019      0.083673      0.903675
O	      5.99181     -0.00211      0.07491         0.153323     -0.101312     -0.197558
