# total energy = -103.61414545 eV
 
CRYSTAL
PRIMVEC
2.092373 3.989487 1.976259 
2.056194 -3.997795 2.032348 
4.191317 0.046192 -4.051226 
PRIMCOORD
16 1
Li	      4.02223      1.94635     -1.96968        -0.018455      0.086904     -0.528670
Li	      1.97053     -0.03288      1.88277        -0.613627     -0.032202     -0.157550
Li	      3.99992      1.92011      1.89861        -0.178359      0.200032      0.343471
Li	      4.02277      0.04549      0.01724        -0.073594     -0.121751     -0.152070
Mn	      7.98070      0.00814     -0.06393         2.209424     -0.091435      0.071740
Mn	      3.98311     -1.91176      1.92536        -0.098231     -2.471339      1.684239
Mn	      2.03540      0.04957     -1.92550        -1.208388     -0.022697     -1.191556
Mn	      6.01219      1.94365     -0.04541         1.625959      2.613507     -0.270938
O	      3.98401     -1.97827      0.11900        -0.182788     -0.429829     -1.328239
O	      2.07478      0.12684     -0.11269        -0.621918     -0.148859      0.845526
O	      4.17487      2.07403     -0.04278        -1.199624      0.290993     -0.111619
O	      5.84198     -2.01623     -1.94585         0.823303     -1.121671     -0.528546
O	      3.91719     -0.11322      2.01306        -0.151286      2.243834      0.790556
O	      4.09885     -0.08738     -2.09968        -0.120743      0.221729     -0.853922
O	      2.00877      1.99188      1.78136        -0.722187      0.953074      1.113309
O	      5.91743      0.14531      0.11149         0.530515     -2.170289      0.274270
