# total energy = -105.54078310 eV
 
CRYSTAL
PRIMVEC
2.157760 4.114158 2.038017 
2.120450 -4.122726 2.095858 
4.322296 0.047636 -4.177827 
PRIMCOORD
16 1
Li	      4.27755      2.06990     -2.09471        -0.016868      0.013058     -0.107792
Li	      2.09561     -0.03496      2.00228        -0.126347     -0.004775     -0.066023
Li	      4.25382      2.04199      2.01912        -0.055241      0.047289      0.058202
Li	      4.27813      0.04837      0.01834        -0.015369     -0.036318     -0.012085
Mn	      8.48729      0.00866     -0.06799         0.493886      0.007360      0.040406
Mn	      4.23595     -2.03311      2.04758        -0.008298     -0.512940      0.298631
Mn	      2.16460      0.05272     -2.04772        -0.228285      0.002997     -0.185335
Mn	      6.39383      2.06703     -0.04829         0.320380      0.519501     -0.021922
O	      4.23691     -2.10384      0.12655        -0.032124     -0.093681     -0.185946
O	      2.20648      0.13489     -0.11984        -0.139292     -0.024905      0.127513
O	      4.43988      2.20569     -0.04549        -0.184483      0.042941     -0.016947
O	      6.21280     -2.14422     -2.06937         0.157828     -0.257899     -0.140719
O	      4.16584     -0.12041      2.14085        -0.074622      0.435177      0.149995
O	      4.35903     -0.09292     -2.23296        -0.082433      0.055444     -0.202701
O	      2.13627      2.11832      1.89444        -0.164292      0.210110      0.219399
O	      6.29305      0.15453      0.11857         0.155560     -0.403357      0.045324
