# total energy = -104.56258826 eV
 
CRYSTAL
PRIMVEC
2.255840 4.301165 2.130654 
2.216834 -4.310123 2.191125 
4.518764 0.049801 -4.367728 
PRIMCOORD
16 1
Li	      4.67525      2.26234     -2.28947         0.102339     -0.031790      0.288282
Li	      2.29045     -0.03821      2.18844         0.306166      0.117981      0.113847
Li	      2.39348     -2.06932      0.07620         0.214012     -0.131858     -0.137330
Li	      4.67589      0.05287      0.02004         0.031816      0.060593      0.112214
Mn	      0.28496     -0.03138     -0.02836        -1.605707     -0.158320     -0.220238
Mn	      2.41295      2.08798      0.04683        -0.047029      1.307046     -0.609344
Mn	      2.36585      0.05762     -2.23811         0.576597     -0.046962      0.439758
Mn	      4.73246     -2.04195     -2.18344        -0.787878     -1.224925     -0.135287
O	      4.63083     -2.29945      0.13832         0.089731      0.353219      0.228365
O	      2.41163      0.14744     -0.13099         0.569745     -0.049333     -0.104734
O	      4.85268      2.41076     -0.04972         0.170343     -0.148171      0.089813
O	      2.27167     -2.39337      2.10596        -0.340211      0.876422      0.448571
O	      4.55316     -0.13160      2.33989         0.336031     -0.924695     -0.411739
O	      4.76432     -0.10156     -2.44057         0.472204     -0.080915      0.610005
O	      2.33490      2.31527      2.07057         0.467487     -0.664269     -0.622752
O	      6.87815      0.16890      0.12959        -0.555647      0.745976     -0.089432
