# total energy = -103.68572328 eV
 
CRYSTAL
PRIMVEC
2.056181 4.052775 2.032189 
2.063011 -4.049562 2.018988 
4.119453 -0.009919 -4.051150 
PRIMCOORD
16 1
Li	      2.01216     -0.01597     -1.91689        -0.666080      0.006351     -0.211918
Li	      3.89272      1.92191     -1.89656         0.109552      0.178442     -0.397654
Li	      2.07263     -1.96075     -0.05426        -0.434372     -0.237784      0.104594
Li	      4.06457     -0.00371      0.07501         0.239961     -0.015908      0.035402
Mn	      7.92365      0.00160     -0.02525         2.501148     -0.035724     -0.246900
Mn	      2.09371      1.94974     -0.05093        -0.487223      1.993935     -0.694472
Mn	      1.96145      0.01319      1.92432        -0.553729     -0.445892      1.514788
Mn	      3.90488     -1.93570     -1.87715        -0.402671     -1.911794     -0.504874
O	      3.98180     -1.89447      0.11763        -0.006291     -0.930398      0.159298
O	      1.81563      0.10594      0.04387        -1.081019     -1.521870     -1.447794
O	      4.10252      1.87921      0.00986         0.202278      0.937139     -0.022822
O	      5.79123     -1.82533     -1.94594         1.270296     -1.621133     -0.416427
O	      4.00718     -0.12460      2.06667         0.487006      0.061086      1.008513
O	      3.90107     -0.10775     -2.11837        -0.599907      1.610089     -0.628132
O	      2.00362      1.83742      1.81503        -0.249594      1.937987      1.413710
O	      6.08621      0.11887     -0.10127        -0.329356     -0.004527      0.334688
