# total energy = -46.07400840 eV
 
CRYSTAL
PRIMVEC
-0.000006 2.045166 2.045075 
4.117428 0.000015 -0.000028 
0.000058 4.261702 -4.261700 
PRIMCOORD
8 1
Li	      2.06274      2.18604     -0.13526        -0.001313     -0.005498      0.003404
Li	      0.00404      2.08076     -2.07375         0.001523     -0.036699      0.035963
Mn	      0.00411      0.03306     -0.02844         0.000783      0.068469     -0.069020
Ni	      2.06284      4.15352     -2.10353         0.001757      0.009120     -0.009269
O	      2.06292      2.18256     -2.17751        -0.000445     -0.076981      0.079653
O	      0.00417      4.37153     -2.32179        -0.000676     -0.002505      0.001772
O	      2.06294      4.18900     -4.18433        -0.001060      0.016494     -0.019057
O	      0.00420      1.96248      0.08723        -0.000569      0.027601     -0.023446
