# total energy = -90.12626354 eV
 
CRYSTAL
PRIMVEC
0.000009 2.106144 2.106052 
3.990396 -0.009045 0.009063 
-0.029879 8.689975 -8.689431 
PRIMCOORD
16 1
Li	      2.00145      2.23336     -0.13061        -0.001414      0.008703     -0.007850
Li	      2.01216      4.40273     -2.29942        -0.003592     -0.095472      0.098344
Li	     -0.01001      6.56746     -2.35742         0.006634      0.013178     -0.011908
Li	      1.95650      6.33936     -4.23540        -0.003314      0.056710     -0.056732
Mn	      3.98630      2.12602      2.08144         0.004196      0.080910     -0.080545
Mn	      0.01267      4.29531     -0.08659        -0.009605     -0.074688      0.074746
Ni	      3.94394      8.51931     -4.30980         0.006430      0.047309     -0.049462
Ni	      1.95338      8.60985     -6.50748         0.009400      0.080997     -0.080229
O	      1.94757      8.72074     -4.51213        -0.004537     -0.105467      0.105898
O	      3.94907      8.71274     -6.61252        -0.000854     -0.052391      0.045953
O	      1.98902      6.42436     -2.21444         0.010523      0.027150     -0.028197
O	      3.94704      6.58629     -4.48248        -0.005580     -0.176586      0.176960
O	      2.00808      4.19549      0.01320        -0.000221      0.049051     -0.047648
O	      0.01614      4.08871     -1.98612        -0.006430      0.030667     -0.031096
O	      1.96058     10.73028     -6.52252         0.000816      0.037715     -0.039146
O	      0.00592      2.16432     -0.06123        -0.002452      0.072214     -0.069088
