# total energy = -104.78036830 eV
 
CRYSTAL
PRIMVEC
2.184027 4.304761 2.158543 
2.191281 -4.301349 2.144520 
4.375584 -0.010535 -4.303035 
PRIMCOORD
16 1
Li	      2.27016     -0.01801     -2.16267         0.305587     -0.006736      0.090058
Li	      4.39184      2.16834     -2.13973        -0.017033     -0.119134      0.170129
Li	      2.33838     -2.21215     -0.06121         0.181916      0.097855     -0.025471
Li	      4.58571     -0.00418      0.08462        -0.103037      0.007959     -0.006879
Mn	      0.18871      0.00892     -0.02851        -1.906786     -0.033539      0.193662
Mn	      2.36216      2.19973     -0.05746         0.094730     -0.773977      0.045270
Mn	      2.21293      0.01488      2.17106         0.209696      0.027703     -0.548940
Mn	      4.40555     -2.18390     -2.11783         0.013050      0.858042      0.148962
O	      4.49235     -2.13737      0.13271         0.070204      0.467052      0.116483
O	      2.04843      0.11953      0.04949         1.125216      0.534842      0.512220
O	      4.62854      2.12016      0.01113         0.076453     -0.476844      0.082552
O	      2.15820     -2.04883      2.10759        -0.456439      0.599521      0.279827
O	      4.52098     -0.14057      2.33166        -0.028133     -0.029724     -0.632152
O	      4.40126     -0.12156     -2.38999         0.496104     -0.543199      0.281653
O	      2.26051      2.07301      2.04775         0.172860     -0.639565     -0.521198
O	      6.86658      0.13412     -0.11425        -0.234388      0.029744     -0.186175
