# total energy = -90.09662031 eV
 
CRYSTAL
PRIMVEC
0.000941 2.089368 2.090846 
8.631865 -4.159732 4.166189 
2.140547 2.063580 -4.155298 
PRIMCOORD
16 1
Li	      4.51645      1.91428     -1.92286         0.021154     -0.014480      0.018848
Li	      4.57106     -2.07132      2.08187         0.007983      0.032047     -0.031122
Li	      6.32745      0.01490      2.07665        -0.012695      0.013116     -0.004180
Li	      8.37134      0.07736     -0.05213        -0.046589     -0.010358     -0.014751
Mn	     10.74138      0.00167      2.09669        -0.036286      0.000226     -0.007462
Mn	      2.17142      2.04697      0.04211         0.039313     -0.001074     -0.001539
Ni	      4.41752     -0.06792      0.05878         0.084431     -0.007076      0.026042
Ni	      8.49193     -1.99914      2.01347        -0.043026     -0.081885      0.072302
O	      2.11898      2.04994     -2.04717         0.047710     -0.019805      0.010424
O	      6.38390      0.05666     -0.05418         0.117232     -0.158196      0.162889
O	      6.56957     -2.03221      2.04663        -0.115871      0.005094     -0.024530
O	      8.85751     -0.01120      2.11579         0.126856      0.123530     -0.125636
O	      8.80006     -2.08810      4.18690         0.051896     -0.017451      0.011278
O	      1.96441      0.03923     -0.04186        -0.078006     -0.010747      0.030057
O	      4.04616      1.97221      0.11089        -0.093678      0.114881     -0.104710
O	      4.28248      0.04784      2.03226        -0.070424      0.032178     -0.017909
