# total energy = -105.44779635 eV
 
CRYSTAL
PRIMVEC
0.000081 4.663341 0.000032 
4.046391 -0.000030 4.046295 
4.046363 -0.000021 -4.046292 
PRIMCOORD
16 1
Li	      4.07888      0.00289      0.05192         0.001972     -0.004326     -0.073014
Li	      5.98603      2.32048      0.05203         0.058832      0.003900      0.000052
Li	      4.07596      2.32114      1.96441         0.012662      0.002628      0.041172
Li	      5.99028      0.00135      1.96241         0.081163     -0.004841      0.012647
Mn	      4.00624      0.00182      4.00485         0.014162     -0.038006      0.535412
Mn	      2.03504      2.32187     -0.02161        -0.145860      0.039285      0.075787
Mn	      2.03465      0.00175      2.03319        -0.400619     -0.041028      0.140487
Mn	      4.00652      2.32190     -1.99328         0.219106      0.035681     -0.294569
O	      1.93616      0.00188      0.07693        -0.010740     -0.049087     -0.206410
O	      3.95029      2.32120     -0.07863         0.282507      0.018201      0.224177
O	      3.94984      0.00234      2.09063         0.233851     -0.016089     -0.130016
O	      2.09130      2.32203     -1.93607        -0.237491      0.017181     -0.313993
O	      4.10421      0.00187     -2.09237         0.012348     -0.045972     -0.198592
O	      1.93685      2.32203      1.93400         0.063081      0.050086      0.296294
O	      6.11733      0.00264     -0.07774         0.127608     -0.015933     -0.015762
O	      0.07867      2.32206      0.07717        -0.312583      0.048321     -0.093672
