# total energy = -103.09045866 eV
 
CRYSTAL
PRIMVEC
0.000085 4.897679 0.000034 
4.249727 -0.000031 4.249626 
4.249698 -0.000022 -4.249623 
PRIMCOORD
16 1
Li	      4.49912      0.00319      0.05727        -0.049298     -0.056545      0.506622
Li	      6.60275      2.55955      0.05738        -0.349003      0.015759     -0.045710
Li	      4.49589      2.56029      2.16680        -0.043963      0.058734     -0.228245
Li	      2.35772      0.00153     -2.08503        -0.511859     -0.025682     -0.027262
Mn	      0.16927      0.00204      0.16783        -0.243641      0.214107     -5.424932
Mn	      2.24470      2.56109     -0.02384         1.023769     -0.062217     -0.561446
Mn	      2.24428      0.00193      2.24266         2.788625      0.090980     -0.542722
Mn	      4.41930      2.56111     -2.19864        -1.339059     -0.233326      1.803664
O	      2.13564      0.00207      0.08486         0.262174      0.101908      0.927314
O	      4.35727      2.56035     -0.08673        -1.445420     -0.012365     -1.153466
O	      4.35678      0.00258      2.30602        -1.233429      0.039493      0.425846
O	      2.30676      2.56127     -2.13554         1.266629     -0.033641      1.569974
O	      4.52705      0.00207     -2.30794        -0.370972      0.208193      3.404789
O	      2.13639      2.56126      2.13325        -0.374582     -0.169813     -1.408181
O	      6.74759      0.00292     -0.08575        -1.118714      0.096402      0.276230
O	      0.08678      2.56130      0.08512         1.738744     -0.231988      0.477527
