# total energy = -102.36692456 eV
 
CRYSTAL
PRIMVEC
3.911529 -0.000537 4.182083 
-0.000844 4.172401 -4.182082 
0.000579 4.170883 4.180472 
PRIMCOORD
16 1
Li	      0.00098      2.00708     -2.00586         0.178752     -0.165555     -0.474084
Li	      1.87936      4.00894      2.00593         0.166318      0.622282      0.058479
Li	      1.87958      2.00663      4.01304        -0.197966      0.111045      0.881754
Li	      0.00242      4.00929      0.00143        -0.252847      0.533556     -0.145113
Mn	      0.00161      0.00333     -0.00105        -2.571428     -2.189682     -0.980343
Mn	      1.87906      2.00601     -0.00049         2.603352     -1.251127     -2.455178
Mn	      1.87941      0.00284      2.00693         0.553743     -4.357478      0.553229
Mn	      0.00180      2.00533      2.00607        -4.480017      0.154764      1.836208
O	      0.08413      2.09173      0.18231        -2.513724     -0.264820     -2.454573
O	      0.08337      3.92447     -2.19285        -1.811294      0.005494     -0.849594
O	      1.79652      1.82480      2.08839         2.740750      1.739995      1.089556
O	      1.96231      3.82895      0.08279         0.837682      2.348901     -0.173587
O	      3.67466      4.09140      6.20408         2.334531      1.227186      1.251079
O	      3.67432      5.92448      3.82935         2.048890      0.958525      1.676996
O	      1.79598      4.18672      3.92896         0.597961     -0.373218      0.599121
O	      1.96180      6.19078      1.92359        -0.234705      0.900132     -0.413950
