# total energy = -105.26501689 eV
 
CRYSTAL
PRIMVEC
4.115254 -0.000565 4.399900 
-0.000888 4.389714 -4.399899 
0.000609 4.388117 4.398204 
PRIMCOORD
16 1
Li	      0.00109      2.22160     -2.22024        -0.062958      0.025502      0.088355
Li	      2.08022      4.43741      2.22032        -0.028697     -0.140194     -0.012079
Li	      2.08047      2.22110      4.44195         0.040747     -0.029763     -0.168791
Li	      0.00267      4.43780      0.00159         0.034994     -0.099874     -0.002084
Mn	      0.00178      0.00368     -0.00117         0.486612      0.497038      0.448273
Mn	      2.07989      2.22041     -0.00055        -0.421473      0.171011      0.468112
Mn	      2.08029      0.00314      2.22143        -0.172267      1.094555     -0.092264
Mn	      0.00200      2.21966      2.22048         0.824774     -0.051243     -0.304727
O	      0.09312      2.31530      0.20180         0.345106      0.087061      0.362077
O	      0.09228      4.34392     -2.42723         0.175438     -0.046190      0.282505
O	      1.98853      2.01983      2.31160        -0.393308     -0.251827     -0.148507
O	      2.17204      4.23818      0.09164        -0.246981     -0.358271     -0.025938
O	      4.06740      4.52870      6.86717        -0.304040     -0.222705     -0.515068
O	      4.06703      6.55768      4.23863        -0.365634     -0.285185     -0.280936
O	      1.98794      4.63420      4.34888         0.052604      0.059872     -0.136769
O	      2.17147      6.85245      2.12918         0.035082     -0.449787      0.037840
