# total energy = -75.82152289 eV
 
CRYSTAL
PRIMVEC
-0.000008 2.039699 2.292207 
13.080562 0.000070 -0.000197 
0.000026 2.039697 -2.292206 
PRIMCOORD
12 1
Li	      6.81755      2.04078      0.00088        -0.042880      0.000225     -0.000242
Li	      8.71826      0.00077     -0.00029        -0.002055      0.000544      0.000783
Li	     10.61818      2.04077      0.00082         0.045859      0.000267     -0.000975
Mn	     12.86654      0.00087     -0.00007        -0.160089      0.000033     -0.000006
Mn	      2.17940      2.04037      0.00015        -0.000862      0.001883      0.000117
Mn	      4.57074      0.00076      0.00024         0.166522     -0.000235     -0.000220
O	      8.71794      2.04044     -0.00168         0.003475      0.000134      0.002941
O	     11.09035      0.00098     -0.00011         0.190458     -0.001008     -0.000942
O	      4.22302      2.04042      0.00027         0.081603      0.001849     -0.000580
O	      6.34668      0.00089      0.00019        -0.191539     -0.000210     -0.000211
O	      0.13567      2.04048      0.00017        -0.087466     -0.000512     -0.000264
O	      2.18029      0.00084      0.00020        -0.003026     -0.002970     -0.000401
