# total energy = -78.55482646 eV
 
CRYSTAL
PRIMVEC
0.008276 2.216273 2.130535 
5.998427 2.214262 0.026031 
-0.016830 4.426320 -4.251292 
PRIMCOORD
12 1
Li	      3.93170      4.57116     -0.01959         0.005455      0.013787     -0.011266
Li	      2.14347      4.37137     -2.18355        -0.003931     -0.012535     -0.026205
Li	      3.94244      6.49421     -2.06648        -0.003692     -0.023320      0.011064
Mn	      5.91023      8.77979     -2.09763        -0.002930      0.009820     -0.011941
Mn	      2.09784      2.24133      0.04161        -0.007926      0.005539     -0.003835
Mn	      5.92851      4.46824     -2.09396        -0.013773      0.004139     -0.000443
O	      0.05019      2.39522      0.13348        -0.021003     -0.015193      0.020198
O	      1.91829      4.46121      0.21798        -0.012055      0.024376      0.012101
O	      4.08745      4.42968     -2.11543         0.010186     -0.007554      0.006961
O	      0.01441      4.26894     -2.27766         0.010555      0.005712     -0.025863
O	      1.88905      6.62474     -2.25523        -0.006115     -0.006628      0.024792
O	      4.01850      2.21700      0.01028         0.045230      0.001858      0.004438
