# total energy = -102.30664152 eV
 
CRYSTAL
PRIMVEC
-0.039800 2.290482 2.139274 
1.867854 -2.513908 0.198197 
9.040192 15.854395 0.034103 
PRIMCOORD
16 1
Li	      3.78844      8.01648     -3.18394         0.022627      0.006611     -0.001951
Li	      5.74438      7.24932     -4.78361         0.004697     -0.003704      0.003461
Li	      8.77616     11.03529     -8.59480        -0.004626      0.007034      0.000907
Li	      8.86604     12.78453    -10.39128        -0.023921     -0.010450      0.000221
Mn	     10.24826     15.85185    -11.22574         0.006418     -0.042502     -0.016849
Mn	      1.80772      2.46681     -0.23015         0.002078      0.001339     -0.001139
Mn	      2.40891      4.93902     -2.35072        -0.008012      0.043061      0.008822
Mn	      7.27955      7.99782     -7.75791         0.009901      0.001602     -0.008505
O	      8.80607     13.05803     -8.42510         0.003618      0.005972     -0.014680
O	      5.34259     10.68794     -5.99457         0.010988      0.001836     -0.013687
O	      7.30981     10.11228     -7.58104        -0.021360     -0.004469      0.022160
O	      5.71538      5.22856     -4.95230        -0.002480     -0.008643      0.012689
O	      2.12956      2.38398     -2.37737         0.037661     -0.008950     -0.038865
O	      4.25266      4.49942     -1.93887         0.000524     -0.012047     -0.017958
O	     10.27291     13.77838    -11.44001        -0.007034      0.010227      0.025558
O	      1.52578      0.25889     -0.22202        -0.031079      0.013084      0.039817
