# total energy = -105.29950645 eV
 
CRYSTAL
PRIMVEC
4.157515 -0.000114 -0.000180 
2.078885 4.137262 -6.394806 
-2.078970 4.215496 2.187865 
PRIMCOORD
16 1
Li	     -0.00048      4.26315     -0.09440        -0.001996      0.009366     -0.028457
Li	      2.07841      4.21082     -2.13910        -0.001469      0.011088      0.003125
Li	     -0.00162      6.23546     -2.04460         0.004194     -0.010804     -0.003663
Li	      2.07861      6.18428     -4.08707        -0.002502     -0.013890      0.027546
Mn	      4.15655      8.26370     -4.18373         0.000522      0.001108      0.052053
Mn	      2.07823      2.18323      0.00046         0.000181     -0.000667     -0.051503
Mn	      4.15677      2.09482     -2.17135         0.002483     -0.015996      0.135580
Mn	      4.15706      4.13623     -4.20018        -0.001009      0.015378     -0.131825
O	      4.15749      4.09031     -2.27199        -0.004894     -0.000467     -0.034561
O	     -0.00025      2.15785     -0.17940        -0.003592      0.024459      0.039993
O	      2.07795      6.35599     -1.91150         0.003523      0.003649      0.029677
O	      2.07746      4.31548      0.15722         0.004714      0.074471     -0.085533
O	      2.07823      4.14168     -4.35161         0.002152      0.008623      0.225237
O	      4.15731      6.13124     -4.33938        -0.000137     -0.074435      0.078474
O	      2.07845      2.08894     -2.01981        -0.002808      0.000051     -0.222257
O	      4.15682      4.07423     -6.19226         0.000637     -0.031934     -0.033888
