# total energy = -105.48713294 eV
 
CRYSTAL
PRIMVEC
-2.129346 4.180818 -2.131674 
2.117883 4.166681 2.118351 
2.132663 0.008516 -6.383828 
PRIMCOORD
16 1
Li	      0.06010      4.17970      0.04153        -0.010528      0.005790      0.020412
Li	      0.01748      2.05697     -2.17878        -0.005991     -0.008625     -0.019439
Li	      2.07642      4.14668     -2.11848        -0.016403     -0.015249     -0.001280
Li	      2.18373      2.10005     -4.19708         0.002716      0.000478      0.007647
Mn	      2.12988      0.03026     -6.35657        -0.001653     -0.009131      0.022758
Mn	     -0.06495      6.28547     -2.15745         0.009040     -0.005257     -0.001160
Mn	     -0.02122      4.20187     -4.31861        -0.007100     -0.030915     -0.019362
Mn	      2.14816      6.28621     -4.26959         0.022149      0.002849      0.007697
O	     -0.04672      6.12859     -4.34399        -0.020146      0.017886     -0.019347
O	     -0.11538      4.28586     -2.28250         0.010063      0.008695      0.002650
O	      1.97143      6.36962     -2.25160        -0.021420      0.006459      0.006382
O	      0.10177      1.97939      0.07291         0.015135      0.009337     -0.016627
O	      2.03787      4.03393     -0.04908         0.008427     -0.012208     -0.027725
O	      0.06883      4.07650     -6.28432         0.013886      0.013655      0.033038
O	      2.17038      6.40902     -6.24960        -0.000135      0.007041     -0.012693
O	      2.26666      4.31816     -4.22045         0.001961      0.009195      0.017048
