# total energy = -105.15346657 eV
 
CRYSTAL
PRIMVEC
-2.088316 4.243912 -2.091941 
2.102128 4.255081 2.100927 
2.084013 -0.003584 -6.277982 
PRIMCOORD
16 1
Li	      2.11109      6.35622     -4.11238        -0.006440     -0.004823     -0.022935
Li	      0.00943      2.11909     -2.13174         0.001856      0.005557     -0.003729
Li	      2.15951      4.22526     -2.12224         0.006289     -0.000282      0.007987
Li	      2.08652      2.13826     -4.13993        -0.002324      0.004867      0.019591
Mn	      4.11417      4.24725     -4.12907         0.019089      0.005725     -0.002470
Mn	      0.03575      6.37255     -2.13124        -0.002030     -0.003164      0.013666
Mn	      0.02570      4.24471     -4.19098        -0.005341     -0.011736     -0.002896
Mn	      0.01808      4.25563     -0.01364         0.007096     -0.001995      0.001512
O	      0.03560      6.19538     -4.08947         0.003813      0.000142     -0.000047
O	     -0.15851      4.20083     -2.17869        -0.020432     -0.018511     -0.017692
O	     -0.10372      2.30342     -4.20816         0.009846      0.014393     -0.011470
O	      0.12274      2.25277     -0.00992        -0.015534      0.002590     -0.008727
O	      1.99598      4.30048      0.09095        -0.026008      0.024069      0.019949
O	      0.09370      4.23627     -6.27763        -0.007740     -0.001321     -0.014129
O	      0.00402      6.25245     -0.14641         0.015209     -0.014407     -0.003378
O	      2.19205      4.25796     -4.10400         0.022651     -0.001105      0.024770
