# total energy = -105.26061979 eV
 
CRYSTAL
PRIMVEC
-2.140362 4.196302 -2.099837 
2.143468 4.188074 2.081344 
2.144315 0.015064 -6.274175 
PRIMCOORD
16 1
Li	      2.18037      6.28038     -4.26787        -0.008094      0.000619     -0.001343
Li	      2.01048      4.20637     -6.26173        -0.007454      0.001480      0.003296
Li	      2.18393      4.20772     -2.18271         0.003388     -0.001473      0.002160
Li	      2.03118      2.10404     -4.21412         0.003195      0.001523     -0.021299
Mn	      4.18870      4.19699     -4.12569        -0.004937     -0.000082      0.022220
Mn	      0.03478      6.25925     -2.07226         0.010290     -0.013813      0.006889
Mn	      0.10027      4.18196     -4.27269         0.019145      0.006847     -0.001317
Mn	      0.03147      2.13567     -2.06578         0.001548      0.012554      0.006477
O	      2.01242      1.99441     -1.99651         0.006207      0.001831      0.002834
O	      0.06081      4.32106     -2.02353         0.019992     -0.000868      0.014460
O	      0.06626      2.21643     -4.01984         0.005805     -0.007638     -0.012117
O	     -0.03174      1.97883     -0.11934        -0.001821      0.007883      0.004616
O	      2.29510      4.06128      0.09090         0.014234     -0.014913      0.009692
O	     -0.05340      4.20915     -6.38714        -0.023263     -0.000388     -0.028130
O	      0.18007      6.38649     -0.06082        -0.013181      0.008895      0.006312
O	      2.03204      4.21303     -4.24602        -0.025054     -0.002457     -0.014749
