# total energy = -103.28884993 eV
 
CRYSTAL
PRIMVEC
-0.001576 0.000131 4.204551 
4.204157 0.000105 -0.001581 
0.000224 8.506737 0.000266 
PRIMCOORD
16 1
Li	      2.09976      6.37612      4.20374         0.001781      0.004064      0.000901
Li	      2.10099      8.30233      2.10209         0.000347      0.013254     -0.001054
Li	      2.10087      4.45010      2.10158         0.000662     -0.012601     -0.000832
Li	      4.20241      6.37676      2.10153         0.000423      0.002774     -0.002410
Mn	      4.20265      8.34429      4.20322         0.000073      0.031744      0.001983
Mn	      2.10186      2.12347     -0.00048         0.000221     -0.001100     -0.000418
Mn	      4.20235      4.41089      4.20294        -0.000944     -0.038447      0.000020
Mn	      4.20308      2.12344      2.10106        -0.000164     -0.001023     -0.003564
O	      4.20337      0.17225      2.10067        -0.001292      0.014097      0.001677
O	      2.10099      2.12336      2.10194         0.000773      0.000443     -0.001663
O	      2.10201      0.17235     -0.00051        -0.000355      0.013088     -0.001129
O	      4.20273      4.07411      2.10048         0.002329     -0.012585      0.002084
O	      2.10060      6.37598      2.10167        -0.000402      0.000630     -0.000840
O	      4.20399      2.12159     -0.00146        -0.002204     -0.001737      0.001000
O	      2.10018      4.07441      4.20323         0.000798     -0.013118      0.004337
O	      4.20430      6.37821     -0.00125        -0.002047      0.000518     -0.000093
