# total energy = -104.43005165 eV
 
CRYSTAL
PRIMVEC
-0.011528 2.125073 2.233886 
8.232464 -0.033697 -0.010894 
-0.011203 4.207034 -4.425164 
PRIMCOORD
16 1
Li	      6.15910      4.19150     -2.20966        -0.000196      0.000147      0.000351
Li	      4.40294      0.02371      0.02852        -0.004514      0.019992      0.015177
Li	      6.16474      2.08768      0.00304        -0.000578      0.000911      0.000579
Li	      7.92618      4.15248     -0.02203         0.004797     -0.021046     -0.014863
Mn	      8.10386      4.20762     -4.39928        -0.077747      0.008820      0.008851
Mn	      2.04842      2.10486      0.00874         0.002354      0.000506     -0.001076
Mn	      4.21453      4.17536     -0.01945         0.071581     -0.008618     -0.009010
Mn	      2.04282      4.20840     -2.20389         0.001481     -0.001004     -0.000263
O	      3.97192      2.17141      0.04275        -0.023867     -0.015336      0.010030
O	      6.03036      4.19812      0.01027        -0.036075     -0.008968     -0.004452
O	      3.96289      4.04539     -2.28250        -0.021399      0.018397      0.014335
O	      6.28780      4.18489     -4.42853         0.040586      0.010441      0.003276
O	      0.12505      2.03821     -0.02518         0.024422      0.014355     -0.010966
O	      2.13186      4.09073     -0.15231         0.001044     -0.023524     -0.016669
O	      0.12284      4.37142     -2.12517         0.020938     -0.017768     -0.013372
O	      1.95399      4.32599     -4.25565        -0.002826      0.022696      0.018072
