# total energy = -105.44941397 eV
 
CRYSTAL
PRIMVEC
2.130758 4.199766 2.105895 
2.137836 -4.196438 2.092215 
4.268863 -0.010278 -4.198083 
PRIMCOORD
16 1
Li	      2.16077     -0.01715     -2.05846        -0.000576      0.000912      0.008760
Li	      4.18022      2.06386     -2.03663         0.002322     -0.012673      0.000766
Li	      2.22571     -2.10556     -0.05826         0.000131      0.008176      0.002219
Li	      4.36475     -0.00398      0.08055         0.027311      0.000977      0.022403
Mn	      8.50885      0.00171     -0.02711         0.002050     -0.000852     -0.000600
Mn	      2.24834      2.09373     -0.05469        -0.004983     -0.006523     -0.002235
Mn	      2.10631      0.01416      2.06644        -0.003913      0.005016     -0.004445
Mn	      4.19327     -2.07866     -2.01578        -0.003521      0.004408     -0.000047
O	      4.27588     -2.03438      0.12631         0.005360     -0.014397      0.026073
O	      1.94973      0.11377      0.04711        -0.009489     -0.017000     -0.010031
O	      4.40551      2.01800      0.01059         0.020180      0.009311      0.004888
O	      6.21894     -1.96013     -2.08966        -0.021458      0.010289     -0.003799
O	      4.30313     -0.13380      2.21930         0.010923      0.014646     -0.007260
O	      4.18918     -0.11571     -2.27482        -0.007717      0.020983     -0.001201
O	      2.15159      1.97312      1.94908        -0.000802     -0.007115     -0.023938
O	      6.53571      0.12765     -0.10874        -0.015815     -0.016160     -0.011552
