# total energy = -105.08795278 eV
 
CRYSTAL
PRIMVEC
2.076033 4.280472 2.087152 
4.154443 -4.270614 -0.019903 
4.173444 -0.000855 -4.193961 
PRIMCOORD
16 1
Li	      4.18336      4.27806     -0.03060        -0.000780     -0.000609      0.001413
Li	      4.14681      2.12943     -2.07930         0.000862     -0.006301     -0.000877
Li	      4.16140      0.02381      0.00980        -0.012104      0.001310     -0.016323
Li	      6.22772     -0.01743     -2.11731         0.019100     -0.000174      0.010772
Mn	      6.23164      4.27818     -2.08840        -0.014833     -0.000206      0.013655
Mn	      2.11500      2.14059     -0.03791         0.011870      0.002702     -0.007511
Mn	      6.29936     -2.11522     -4.16394         0.007895     -0.004926      0.018454
Mn	      6.20065      2.12209     -0.06661        -0.016923      0.006624     -0.008576
O	      4.24827     -2.06084     -0.02020         0.015450      0.008294      0.020100
O	      6.22389      0.16100      0.08873        -0.000617      0.011072     -0.007716
O	      1.97597     -0.15490      0.00725         0.011604     -0.012091     -0.003206
O	      4.10880      2.12273      0.00424        -0.015197      0.001824     -0.021138
O	      6.21464     -2.11657     -2.04904         0.001142     -0.002254      0.029884
O	      8.45866      0.24176     -2.09109        -0.015362     -0.001430     -0.006199
O	      4.14083     -0.23286     -2.24543         0.009065      0.006950      0.006503
O	      6.26585      2.06854     -2.21212        -0.001171     -0.010784     -0.029235
