# total energy = -78.39470261 eV
 
CRYSTAL
PRIMVEC
2.047218 4.060483 2.046513 
4.167389 -2.062846 -2.058941 
2.077719 2.006134 -4.076079 
PRIMCOORD
12 1
Li	      4.05181      1.93374     -1.98119         0.089498      0.092229     -0.205937
Li	      4.03933     -0.03668     -3.96697        -0.187452     -0.119876     -0.083776
Li	      6.01188      1.92735     -3.96736         0.339211     -0.027446     -0.089008
Mn	      8.02015      3.86159     -3.94876         1.199545      1.458588     -2.304151
Mn	      2.00298      1.95761      0.00096        -1.763441      0.423545      1.192629
Mn	      2.04297     -0.00117     -2.00091        -0.561693     -2.188207      0.706709
O	      4.16917     -0.17520     -2.01161        -0.081085     -0.678290      0.128277
O	      5.95632      1.79964     -1.85485         0.752173      0.387092     -0.035415
O	      4.10708      2.05974     -4.09463         0.018751     -0.641398     -0.497040
O	      3.87910      2.08966      0.01572         0.734823      0.002837      0.683016
O	      2.04310      1.84970     -2.09585        -0.517281      1.192963      0.583624
O	      3.97779      4.01191     -1.85612        -0.023049      0.097964     -0.078929
