# total energy = -904.92554761 eV
 
CRYSTAL
PRIMVEC
4.176453 8.536807 4.097945 
8.409734 -4.296709 -4.115767 
6.296583 6.407739 -0.013190 
PRIMCOORD
135 1
Li	      6.28059      4.21072     -6.27536        -0.000793     -0.014550      0.005587
Li	      8.42196      6.45172    -10.35171         0.002913      0.021815     -0.004417
Li	      8.37391     -0.08932     -4.11590        -0.002685      0.002368     -0.005272
Li	     10.64648      1.91595     -8.41290         0.024457     -0.010069     -0.006181
Li	      6.38549      6.46984      0.02152        -0.010497      0.004509      0.009117
Li	      8.30303      8.48456     -4.18769        -0.003910      0.003032      0.010477
Li	     10.50401     10.57124     -8.27479        -0.002487     -0.018825     -0.017269
Li	     10.45892      4.29075     -2.10103        -0.008699      0.008502     -0.009078
Li	     12.70665      6.35728     -6.22838         0.006557      0.003417      0.004043
Li	      4.25288      0.15227     -4.04122        -0.001791      0.016138     -0.007971
Li	     10.46212     10.57817     -4.18303         0.005719     -0.009217      0.011799
Li	      8.46432      4.34498    -12.31991         0.000528      0.017070     -0.014555
Li	     12.52557      6.36347     -2.07662         0.003517      0.005291     -0.006774
Li	      6.24426      4.20875     -2.04995        -0.011014     -0.013017     -0.004027
Li	      8.33194      6.31222     -6.24754         0.008099     -0.001910      0.003720
Li	     10.54848      8.55901    -10.25066        -0.007067      0.005607      0.006565
Li	     10.45114      2.02782     -4.10506        -0.007379     -0.017973      0.001441
Li	     12.67061      4.27272     -8.25479        -0.006856     -0.007225      0.015008
Li	      6.22004      2.10526     -4.10344        -0.001540     -0.003532     -0.001047
Li	      8.38436      4.32506     -8.24701         0.008718      0.006488      0.012517
Li	     10.54415      6.65028    -12.32354        -0.005206      0.014495      0.008678
Li	     10.53446     -0.11126     -6.13850         0.004818      0.005940      0.009471
Li	      8.29479      6.36507     -2.07464        -0.018847      0.002334     -0.008066
Li	     10.43055      8.54035     -6.17569        -0.003989      0.000904      0.004245
Li	     12.62256     10.77961    -10.20602        -0.007452     -0.010244     -0.004914
Li	     12.56035      4.23288     -4.07007         0.000350      0.004494      0.010572
Li	     16.55404      8.50177    -12.22939        -0.001271     -0.011063     -0.008939
Mn	      8.33087      4.19480     -4.14768        -0.010935      0.005072      0.005496
Mn	     10.48062      6.40710     -8.25161        -0.013791      0.013755      0.024406
Mn	     12.62489      8.62826    -12.24390         0.011313      0.011666     -0.012417
Mn	      4.19334      6.40127     -1.98685        -0.008559     -0.002766     -0.008868
Mn	     14.61763      4.20495    -10.33652         0.011954      0.006251      0.001767
Mn	     16.64545      6.33420    -14.32638         0.007292     -0.046319     -0.002754
Mn	     10.42212      8.47861     -2.09797        -0.004827      0.012342      0.005371
Mn	     12.58540     10.64794     -6.21539         0.015240     -0.031257      0.026415
Mn	     10.55407      4.32467    -14.29119         0.004733      0.006877     -0.011708
Mn	      2.11319      2.11403     -4.02753         0.002228     -0.012849     -0.029428
Mn	     16.68969      8.48683     -8.28442        -0.029198      0.036142      0.039530
Mn	     18.75229     10.65671    -12.27195         0.001742      0.013268     -0.010700
Mn	      2.09641      2.18281      0.02648         0.003862      0.021629      0.004747
Mn	      4.18109      4.21329     -4.19720         0.025515      0.008545      0.016462
Mn	      6.12195      6.45384     -8.32240         0.037427      0.031983      0.015566
Mn	      6.35454     -0.00694     -1.94298         0.000133      0.004724     -0.020171
Mn	      8.41292      2.08371     -6.22481         0.013826     -0.009633      0.011635
Mn	     10.62187      4.23671    -10.33538        -0.007632      0.004417      0.012539
Mn	      4.16395      6.42702      2.11403        -0.001245     -0.018491     -0.010917
Mn	      6.27261      8.51128     -2.07245        -0.019671      0.003349      0.015114
Mn	      8.22705     10.65136     -6.21216         0.020916     -0.028915     -0.021394
Mn	      8.41120      4.28806      0.07904        -0.026567     -0.000977     -0.025378
Mn	     10.44761      6.40052     -4.16972        -0.021705     -0.000562      0.004094
Mn	     12.78439      8.45169     -8.21675        -0.035155     -0.018166     -0.003889
Mn	      2.18897      0.08028     -1.98010         0.007655      0.016613     -0.015900
Mn	      8.30719     10.65780     -2.22534        -0.002511     -0.012577     -0.004950
Mn	     10.50769     12.75363     -6.22249         0.012246      0.021894     -0.007368
Mn	     10.45552      6.38543     -0.02435         0.004244      0.025294      0.005113
Mn	     12.66609      8.51806     -4.22217         0.008074     -0.029877      0.022857
Mn	     10.62043      2.10889    -12.38259         0.006837     -0.024601     -0.012788
Mn	      4.25759      4.33238      0.06525        -0.001480      0.000364     -0.020159
Mn	      6.23160      6.32420     -4.23325         0.008582     -0.050122      0.020336
Mn	      8.39751      8.45076     -8.28466         0.001912     -0.011704     -0.002597
Mn	      8.37049      2.12128     -2.09378        -0.025498     -0.001717     -0.022550
Mn	     10.53133      4.27236     -6.24004         0.011798     -0.019525      0.012685
Mn	     12.70629      6.40045    -10.31842         0.001407      0.004304     -0.038781
O	      4.36834     -0.15500     -1.96661         0.016799     -0.034554      0.007206
O	      6.42172      1.90471     -6.24542         0.023419      0.004942     -0.012763
O	      8.32373      4.07383    -10.29095        -0.041303     -0.018050     -0.016242
O	      8.20306     -2.34354     -4.17034        -0.045331      0.010807     -0.011930
O	     10.65081     -0.23330     -8.14060        -0.004516      0.022050      0.002111
O	     12.49915      1.84510    -12.37874        -0.054193     -0.039272      0.005012
O	      6.44518      4.19018      0.07343         0.023678      0.001892      0.010178
O	      8.34201      6.17977     -4.18811         0.024065      0.028493     -0.001856
O	     10.37416      8.34608     -8.22113         0.001896     -0.034923      0.003899
O	     10.34462      1.90055     -2.00182        -0.029566      0.026584      0.006398
O	     12.69918      4.05349     -6.17452         0.006657     -0.009179     -0.005192
O	     14.58433      6.10965    -10.28823        -0.061448     -0.018746      0.010112
O	      6.45537      2.01497     -2.05107         0.048945      0.017631     -0.026234
O	      8.31144      4.05833     -6.14170        -0.027789      0.001779     -0.025344
O	     10.63208      6.28339    -10.21617         0.017213      0.054489      0.030076
O	     10.43246     -0.16503     -3.98788        -0.019249      0.018080     -0.011725
O	     12.63788      1.89346     -8.11507        -0.039209      0.014546     -0.035548
O	     14.86251      4.04280    -12.28737        -0.008916     -0.004477      0.042910
O	      8.46586      6.29106      0.06490         0.022621      0.026304      0.009687
O	     10.37223      8.34422     -4.08280        -0.011420      0.010845     -0.017838
O	     12.71945     10.49048     -8.17621         0.018865      0.035496      0.016228
O	     12.50323      4.06439     -1.92389        -0.027888     -0.015290     -0.003894
O	     14.60827      6.12898     -5.98244        -0.022864      0.006045     -0.000396
O	     16.94355      8.26075    -10.30975         0.032806      0.026150      0.026611
O	      4.25727      2.25802     -4.35562         0.028028     -0.014447      0.015588
O	      6.18232      4.40509     -8.37707        -0.009036     -0.025210     -0.062836
O	      8.46848      6.62708    -12.36571         0.007832     -0.012874      0.005552
O	      8.48720      0.13156     -6.34184         0.016685     -0.010304      0.008073
O	     10.34158      2.27750    -10.37249        -0.035543     -0.052269     -0.049379
O	     12.49045      4.45130    -14.54756        -0.022452     -0.019363     -0.046828
O	      6.29463      6.54498     -2.04102         0.025836     -0.006307      0.013098
O	      8.21571      8.70021     -6.15629        -0.034650      0.005607      0.043893
O	     10.55353     10.90219    -10.29945         0.018777      0.027279      0.023633
O	     10.53255      4.44948     -4.25862         0.058349     -0.010024      0.015845
O	     12.44168      6.49198     -8.27327        -0.027388     -0.036244     -0.013613
O	     14.61889      8.75340    -12.50219        -0.004551     -0.024568     -0.031009
O	      4.38040      2.38987      0.14403        -0.008512     -0.014453      0.015719
O	      6.16076      4.38406     -4.17657        -0.051628      0.000644     -0.017990
O	      8.53122      6.47169     -8.30362         0.040535     -0.039457     -0.002874
O	      8.28059      0.22290     -2.13972        -0.018515      0.049180      0.004518
O	     10.44828      2.30228     -6.18392        -0.021961     -0.006411      0.008638
O	     12.68848      4.47824    -10.26502         0.059645      0.027298      0.002354
O	      6.42921      6.63563      2.12144         0.023343     -0.016430     -0.002693
O	      8.23252      8.69308     -2.13945        -0.002017     -0.010497     -0.007276
O	     10.61924     10.79574     -6.23497         0.046920      0.028536      0.001301
O	     10.33699      4.44683     -0.09029         0.012113      0.024487     -0.004457
O	     12.46249      6.56106     -4.15252        -0.030660      0.009734      0.007136
O	     14.81012      8.74310     -8.29351         0.088369      0.032543     -0.008160
O	      1.96811      2.03634     -2.00636        -0.008033      0.012491      0.030930
O	      4.29339      4.01501     -6.37629         0.005165      0.013717     -0.084201
O	      6.42183      6.14209    -10.30931        -0.003549     -0.053821      0.011968
O	      6.30531     -0.18865     -4.24878        -0.000851     -0.044105     -0.002990
O	      8.45343      1.95549     -8.37938         0.002447      0.020003     -0.095867
O	     10.48500      4.08710    -12.33103        -0.000718     -0.014985     -0.060727
O	      4.17113      6.32896      0.09344         0.006462      0.015776      0.059057
O	      6.23571      8.23099     -4.27457        -0.004054      0.023028     -0.075078
O	      8.48891     10.44630     -8.22655         0.007721      0.031823      0.022534
O	      8.38603      4.09935     -2.20807        -0.008862     -0.027762      0.016331
O	     10.47358      6.25687     -6.30612        -0.010385      0.031343     -0.082471
O	     12.60133      8.35601    -10.16903         0.001192     -0.035062      0.057184
O	      4.19624      4.50214     -1.86947        -0.001205      0.022020      0.026664
O	      6.33530      6.53174     -6.34587         0.007714      0.026773     -0.038653
O	      8.48025      8.69338    -10.36240         0.005721     -0.001846     -0.054286
O	      8.39113      2.23344     -4.06047        -0.003082     -0.043998      0.063364
O	     10.50615      4.44034     -8.21860         0.000309      0.037067      0.019188
O	     12.53440      6.70669    -12.19952        -0.003202     -0.002715      0.096338
O	      6.29208      8.69437      0.18284         0.005298     -0.022336      0.032807
O	      8.44348     10.80782     -4.22710        -0.002459      0.031930     -0.008957
O	     10.48054     12.96819     -8.19229         0.012963     -0.017122      0.065215
O	     10.39822      6.50262     -2.02058         0.002289     -0.029338      0.075267
O	     12.47242      8.69112     -6.19003         0.009158      0.039007     -0.028498
O	     14.61577     10.94254    -10.17301         0.002816      0.016812      0.059035
