# total energy = -824.27167624 eV
 
CRYSTAL
PRIMVEC
3.803047 8.714106 4.249570 
7.798363 -4.485447 -4.209607 
5.763875 6.321633 -0.013944 
PRIMCOORD
120 1
Li	      3.91796      2.25037     -2.05726         0.004568      0.038489     -0.015680
Li	      7.78599     -0.03092     -4.14450         0.009216      0.011953     -0.007760
Li	      5.83403      6.50141      0.02271        -0.002011      0.006388     -0.001121
Li	      9.63785      4.45180     -2.02538         0.017235      0.022237     -0.012894
Li	     11.76255      6.63652     -6.43749        -0.033792     -0.013069     -0.022322
Li	      7.68501      8.51810      0.08442        -0.001076      0.001785      0.004266
Li	      7.80762     -2.34097     -6.25474        -0.003351      0.000615      0.003153
Li	      5.87352      4.49076     -2.02342        -0.016781      0.004108     -0.003517
Li	      9.66801      2.00524     -4.13568         0.007724      0.005624     -0.003398
Li	      5.76074      1.92957     -4.14099        -0.004020     -0.019661      0.006670
Li	      9.66431     -0.27040     -6.24534        -0.000319     -0.019894      0.009777
Li	     11.57618      3.99210     -4.10051        -0.009265     -0.006970      0.009252
Mn	      7.68612      4.13367     -4.15116         0.003114      0.057324     -0.027070
Mn	      9.56815      6.33304     -8.25870        -0.018978      0.042648     -0.063845
Mn	     11.53884      8.46027    -12.22374         0.024841     -0.083621      0.057827
Mn	     11.58189      1.90557     -6.27597         0.031706      0.023054     -0.034140
Mn	     13.48345      4.05214    -10.33094         0.025267      0.023162     -0.064782
Mn	     15.43080      6.20285    -14.29979         0.007916     -0.087733      0.057828
Mn	      9.57695      8.46769     -2.03659         0.001285      0.027716     -0.019225
Mn	     11.48752     10.63726     -6.11954         0.025075      0.080777     -0.068916
Mn	      9.65367      4.07539    -14.31645         0.014016     -0.094227      0.068076
Mn	      5.72359     10.73107      0.10407         0.013326      0.031322     -0.028864
Mn	     15.37331      8.41551     -8.23380         0.034922      0.065646     -0.059184
Mn	      5.73811      6.33367    -12.21078         0.008663     -0.091453      0.060100
Mn	      1.96048      2.11972      0.30523         0.009613     -0.039615     -0.017153
Mn	      3.80791      4.28440     -4.39063         0.007077      0.040792      0.017929
Mn	      5.75323      6.36244     -8.24108        -0.011319     -0.004081     -0.000860
Mn	      5.86312     -0.14179     -1.79522         0.008887     -0.032883     -0.020465
Mn	      7.68983      2.05276     -6.49766        -0.008974      0.023494      0.031811
Mn	      9.65596      4.12714    -10.33444        -0.007535      0.003036     -0.003268
Mn	      3.85522      6.47800      2.42551         0.002179     -0.030672     -0.008620
Mn	      5.75716      8.56023     -2.22256         0.002288     -0.001129      0.006439
Mn	      7.65646     10.72501     -6.12088         0.000444      0.005712     -0.000374
Mn	      7.75768      4.25521      0.29857         0.020020     -0.023443     -0.008238
Mn	      9.57351      6.36679     -4.28502        -0.023351      0.030312     -0.001464
Mn	     11.52601      8.58120     -8.35393         0.017085      0.002521      0.049436
Mn	      1.98067     -0.00282     -2.02400        -0.011693     -0.038753      0.033915
Mn	      7.69838     10.74586     -2.17267         0.000733      0.077245     -0.048594
Mn	      5.82946      4.17944    -10.35492        -0.028369     -0.027084      0.064236
Mn	      5.86875     -2.22875     -4.15370        -0.010638     -0.039271      0.044462
Mn	     11.57979      8.50741     -4.23276        -0.013725      0.083249     -0.065301
Mn	      9.74000      1.96557    -12.45141        -0.005073     -0.039020      0.056785
Mn	      3.86702      4.38341      0.08426         0.000730     -0.031393      0.032452
Mn	      5.80725      6.38371     -4.27161        -0.004843      0.084714     -0.050526
Mn	      7.71496      8.55700     -8.22695        -0.034366     -0.041769      0.064146
Mn	      7.76851      2.11443     -2.02322        -0.006749     -0.013736      0.028699
Mn	      9.69312      4.15391     -6.38750        -0.011710      0.049661     -0.034326
Mn	     11.64207      6.31015    -10.34055        -0.009050     -0.042684      0.041801
O	      3.91086     -0.24268     -2.12055        -0.058683      0.017495      0.003768
O	      5.80480      1.71426     -6.17632        -0.001318     -0.032592     -0.018735
O	      7.73429      3.82146    -10.27711        -0.032569     -0.018811     -0.030320
O	      7.81245     -2.47151     -4.23383        -0.043119      0.017006      0.006989
O	      9.71319     -0.52720     -8.25729        -0.022567     -0.040083     -0.023860
O	     11.63448      1.60475    -12.39238        -0.053115     -0.010706     -0.032420
O	      5.80200      4.15619     -0.02417        -0.051915      0.011299      0.010040
O	      7.69822      6.04185     -4.11303        -0.000355     -0.046969     -0.022295
O	      9.61974      8.24734     -8.19031        -0.028616     -0.026738     -0.021703
O	      9.70037      1.86758     -2.11212        -0.041091      0.007450     -0.003469
O	     11.63140      3.84453     -6.15146        -0.002201     -0.032821     -0.017327
O	     13.53383      5.96540    -10.25318        -0.045141     -0.003338     -0.036245
O	      5.84616      1.88517     -1.92610         0.030437      0.041223     -0.008824
O	      7.78442      3.95429     -6.08518         0.004767      0.008922      0.055366
O	      9.70814      6.10185    -10.17168         0.024303      0.026252      0.022824
O	      9.74272     -0.30684     -4.04179         0.035889      0.040297     -0.018457
O	     11.68193      1.69772     -8.19649         0.001883      0.010708      0.053276
O	     13.59503      3.84043    -12.26286         0.030916      0.030435      0.024635
O	      7.75948      6.29603      0.29328         0.035953      0.044385     -0.016582
O	      9.66871      8.28102     -3.95913         0.017927      0.010473      0.044804
O	     11.60696     10.49869     -8.05403         0.020694      0.012753      0.037631
O	     11.65116      4.04456     -1.91333         0.030860      0.046670     -0.017379
O	     13.56205      6.01212     -6.05385         0.003190      0.018630      0.043332
O	     15.50782      8.20213    -10.16055         0.021640      0.022257      0.029106
O	      3.82054      2.24239     -4.24713        -0.047989     -0.041502      0.017662
O	      5.69436      4.39692     -8.42596        -0.029306     -0.029426     -0.026177
O	      7.64851      6.53856    -12.50479        -0.005283     -0.014247     -0.055410
O	      7.71064     -0.02577     -6.39570        -0.023052     -0.031793      0.019264
O	      9.60341      2.15850    -10.52078        -0.027810     -0.026675     -0.019985
O	     11.55916      4.28810    -14.60692        -0.010939     -0.011335     -0.051774
O	      5.68627      6.55698     -2.13044        -0.039618     -0.053521      0.007716
O	      7.60255      8.76499     -6.29993        -0.022996     -0.029563     -0.024989
O	      9.54538     10.89838    -10.39096        -0.009906     -0.017428     -0.053945
O	      9.61707      4.34811     -4.21252        -0.034666     -0.035208      0.005625
O	     11.50095      6.59064     -8.38645        -0.010803     -0.039512     -0.017690
O	     13.44140      8.66800    -12.49980        -0.013030     -0.010873     -0.047169
O	      3.84819      2.44863     -0.03332         0.005684      0.040727      0.019775
O	      5.75542      4.37872     -4.05716         0.047283     -0.007500     -0.012870
O	      7.67831      6.64469     -8.27196         0.065217      0.015357      0.027103
O	      7.74866      0.16910     -2.13407         0.010185      0.035896      0.022511
O	      9.63700      2.16124     -6.17945         0.052026     -0.020076      0.001492
O	     11.57655      4.40810    -10.37487         0.029848      0.024881      0.017454
O	      5.75172      6.78582      2.10441         0.005078      0.045066      0.025450
O	      7.67064      8.78303     -1.92405         0.053398     -0.023522     -0.006232
O	      9.57769     10.98438     -6.18919         0.039425      0.009720      0.037418
O	      9.64997      4.55637     -0.01251         0.007247      0.041356      0.018624
O	     11.57504      6.49614     -4.13511         0.044762     -0.011364      0.020030
O	     13.45573      8.77306     -8.27089         0.030267      0.010790      0.025435
O	      1.96626      1.93706     -2.19932        -0.000618     -0.005873     -0.033655
O	      3.86818      3.88723     -6.37175        -0.003531     -0.066894     -0.005944
O	      5.82026      6.10561    -10.36864        -0.007277      0.001861     -0.072203
O	      5.85308     -0.30628     -4.31931         0.000967     -0.012582     -0.024636
O	      7.77078      1.64198     -8.47006         0.004014     -0.083585     -0.013508
O	      9.73601      3.88242    -12.47531        -0.017370     -0.000199     -0.077607
O	      3.84838      6.31174     -0.08352         0.003375     -0.021861     -0.021793
O	      5.80877      8.23945     -4.21926        -0.005834     -0.051311     -0.009547
O	      7.69521     10.47703     -8.24819        -0.001095      0.001227     -0.080801
O	      7.75604      3.99912     -2.19316         0.000105     -0.035095     -0.037086
O	      9.80170      6.03261     -6.33441         0.003209     -0.046957     -0.006110
O	     11.61371      8.24787    -10.38346        -0.001707      0.001930     -0.079482
O	      3.80444      4.47031     -1.88766         0.008588      0.009323      0.031514
O	      5.69317      6.61739     -6.10934         0.008538     -0.000930      0.079355
O	      7.62914      8.83236    -10.12992        -0.001299      0.068884      0.006904
O	      7.70110      2.19012     -3.99920         0.003043      0.011187      0.021761
O	      9.60276      4.40705     -8.23637         0.005733     -0.004236      0.036501
O	     11.54429      6.59280    -12.22305        -0.005426      0.069772      0.017596
O	      5.72501      8.80449      0.25050        -0.003441      0.034755      0.024330
O	      7.60301     10.97564     -4.01872         0.001539     -0.005122      0.062258
O	      9.54129     13.19184     -8.00417        -0.001532      0.068682      0.006199
O	      9.67312      6.56637     -1.87463        -0.008069      0.025444      0.034289
O	     11.52784      8.66073     -6.08575         0.005483     -0.028436      0.064077
O	     13.44506     10.93666    -10.10070        -0.001130      0.074147      0.006959
