# total energy = -846.14119279 eV
 
CRYSTAL
PRIMVEC
3.892005 8.733393 4.270193 
7.872947 -4.447953 -4.228577 
5.870627 6.337168 -0.013983 
PRIMCOORD
124 1
Li	      5.91286      4.27197     -6.15860         0.003573     -0.001022     -0.000121
Li	      9.85546      2.07118     -8.31433         0.007027      0.000870      0.005623
Li	     11.93625      4.47299    -12.69705        -0.007528      0.016346     -0.015479
Li	      7.86168      8.59760     -4.02742        -0.003524      0.004651      0.000632
Li	      9.93226     11.03414     -8.44348        -0.012859      0.017832     -0.004138
Li	     11.80424      6.33883     -6.15580        -0.000665      0.011283     -0.003036
Li	     13.87110      8.82685    -10.55687        -0.011382      0.021404     -0.007994
Li	      5.90018      2.02921     -8.29360         0.010930     -0.012758      0.001368
Li	      9.85074     -0.17170    -10.38722         0.005630     -0.000051     -0.003510
Li	      7.81533      6.34029     -6.18704         0.000747     -0.021889      0.000258
Li	      9.70714      8.26966    -10.43748         0.012425     -0.009785      0.011415
Li	     11.74702      4.10721     -8.31081        -0.010636     -0.024421     -0.007266
Li	      7.81771      4.02102     -8.28797        -0.004008     -0.023227      0.000843
Li	     11.74998      1.80784    -10.37093        -0.015523     -0.023836      0.001518
Li	      9.76136      8.39240     -6.12039         0.005038     -0.025422     -0.008906
Li	     13.71436      6.11882     -8.21318        -0.020888     -0.021050     -0.012902
Mn	      7.82056      4.28553     -3.98406         0.006747     -0.060940      0.056180
Mn	      9.76527      6.30235     -8.27080         0.008116      0.008139     -0.030819
Mn	      5.82879      2.12859     -0.00894         0.010221      0.037730     -0.003622
Mn	     11.74178      2.04314     -6.09973        -0.013138     -0.069240      0.013703
Mn	      5.82740      8.51979     -6.14362        -0.019826      0.016819     -0.031771
Mn	      9.72478     -0.07521     -2.09557        -0.004563      0.026889     -0.031366
Mn	      5.86711     -0.13845     -6.12835         0.054822     -0.046665      0.044987
Mn	     11.73261     10.66188     -6.13934         0.012607      0.036204     -0.020245
Mn	      7.75603      6.48660      2.13832         0.010000      0.047495     -0.030581
Mn	      1.91822      2.07795     -4.00048         0.020311     -0.043577      0.038183
Mn	      7.79577     12.85715     -4.00589         0.005057      0.020194      0.016687
Mn	     17.56530     10.56045    -12.38280         0.008744      0.057502     -0.013875
Mn	      1.88640      2.18064     -0.06202        -0.010302      0.007058      0.021554
Mn	      3.97905      4.14535     -3.79024        -0.011836     -0.033335     -0.003122
Mn	      5.85590      6.40061     -8.51303        -0.000359      0.013067      0.018132
Mn	      5.84557      0.02464     -2.23754        -0.010050      0.004979      0.026576
Mn	      7.89889      1.96556     -5.93869        -0.022423     -0.027377      0.005005
Mn	      9.70108      4.30546    -10.67052         0.013390      0.026710      0.007236
Mn	      3.86289      6.60989      2.04018        -0.005662      0.007718      0.034694
Mn	      5.90158      8.56678     -1.71989        -0.004341     -0.003955     -0.014316
Mn	      7.79350     10.73830     -6.28226         0.011225      0.021590      0.003514
Mn	      7.79395      4.39855     -0.07749         0.006355      0.011658      0.023316
Mn	      9.84110      6.36546     -3.85423        -0.016048     -0.022137     -0.018542
Mn	     11.76407      8.52265     -8.33227         0.000589      0.015894     -0.004231
Mn	      1.99744     -0.02259     -2.10689        -0.004924      0.003319      0.060905
Mn	      3.95812      2.07726     -6.18368         0.000505     -0.006459      0.028568
Mn	      9.78642     12.89939     -6.23988         0.016874      0.049700     -0.027419
Mn	      5.95170     -2.24988     -4.23134         0.015588     -0.008816      0.030110
Mn	      7.90595     -0.12310     -8.31773        -0.002655     -0.000682     -0.007107
Mn	     13.76062     10.71060     -8.35056        -0.000105      0.030255     -0.005682
Mn	      3.93398      4.35930      0.03165         0.003802      0.020893      0.011992
Mn	      5.90099      6.48656     -4.04454        -0.021498     -0.010873     -0.014938
Mn	      7.83473      8.58583     -8.35210         0.016325      0.026793     -0.048150
Mn	      7.89577      2.15549     -2.09540         0.007197      0.012890      0.021081
Mn	      9.83811      4.26956     -6.17555        -0.046737     -0.019070      0.008801
Mn	     11.83260      6.36306    -10.45428        -0.019521      0.014888     -0.003109
O	      3.91726     -0.33656     -2.03987        -0.071722     -0.021421     -0.023504
O	      5.89502      1.86930     -6.28045        -0.046391     -0.009102      0.007745
O	      7.78318      3.85763    -10.33692        -0.090635     -0.051667     -0.015004
O	      7.84706     -2.59635     -4.11466        -0.080411     -0.013679     -0.030787
O	      9.83021     -0.36344     -8.38287        -0.027593     -0.010616      0.008249
O	     11.78199      1.64333    -12.42413        -0.050810     -0.030331     -0.027515
O	      5.84861      4.03741      0.07183        -0.065082     -0.023649     -0.016887
O	      7.85567      6.28133     -4.16122        -0.028208      0.002454      0.003175
O	      9.78956      8.27663     -8.27546        -0.046456     -0.011879     -0.010370
O	      9.79237      1.83567     -2.03027        -0.069271     -0.027221     -0.028695
O	     11.78216      4.04791     -6.27692        -0.007214      0.014739      0.000440
O	     13.75097      6.03501    -10.26307        -0.042528     -0.009595     -0.017500
O	      5.93569      1.95303     -1.91623         0.021666      0.038282      0.025606
O	      7.89482      4.08575     -6.07560         0.089254      0.062242      0.023216
O	      9.91839      6.26577    -10.20048         0.047083      0.068614      0.041745
O	      9.86626     -0.30815     -4.02256         0.028193      0.027306      0.038953
O	     11.84135      1.89187     -8.18452         0.057727      0.064899      0.007125
O	     13.76095      3.89511    -12.31431         0.011393      0.042190      0.059940
O	      7.89231      6.31612      0.21383         0.029008      0.027323      0.022191
O	      9.79018      8.38481     -3.93650        -0.020886     -0.005014      0.021417
O	     11.77594     10.47135     -8.07375         0.017979      0.045779      0.049658
O	     11.82234      4.06882     -1.89037         0.026976      0.025442      0.016598
O	     13.75571      6.15991     -6.05695        -0.015277     -0.028954      0.008563
O	     15.69029      8.20444    -10.19192         0.034108      0.007344      0.013365
O	      3.82221      2.22621     -4.28199        -0.054382     -0.070476     -0.050223
O	      5.85978      4.31698     -8.42959        -0.006470     -0.056976     -0.029385
O	      7.72327      6.54676    -12.60415        -0.016445     -0.027197     -0.030626
O	      7.77511      0.06578     -6.39234        -0.059303     -0.083408     -0.035288
O	      9.75611      2.08856    -10.53708        -0.055666     -0.053401     -0.011543
O	     11.67139      4.37283    -14.69413        -0.020132     -0.037673     -0.016549
O	      5.80235      6.67390     -2.11700         0.022482      0.024181     -0.011942
O	      7.83329      8.75667     -6.29148         0.006780     -0.012106     -0.013180
O	      9.66787     10.93872    -10.42972        -0.020744     -0.018019     -0.014074
O	      9.76267      4.47103     -4.25226        -0.020029     -0.013377     -0.049382
O	     11.77755      6.51350     -8.37550         0.027649     -0.059772     -0.036788
O	     13.61575      8.74482    -12.54701        -0.026465     -0.034401     -0.011115
O	      3.88138      2.41492      0.12278         0.051294      0.009670      0.003009
O	      5.92322      4.57071     -4.14406         0.090218      0.062966     -0.010457
O	      7.82020      6.58339     -8.21080         0.023762      0.024372     -0.002132
O	      7.80977      0.24350     -2.10475         0.063838      0.014026      0.018227
O	      9.82335      2.34190     -6.28735         0.101138      0.052603      0.004838
O	     11.76676      4.37040    -10.41637         0.021401      0.022744     -0.003055
O	      5.82545      6.79905      2.14289         0.060260      0.024004      0.021968
O	      7.81597      8.88384     -2.03196         0.010805      0.021697     -0.021607
O	      9.77130     10.88751     -6.15516         0.026284     -0.006522      0.008077
O	      9.75111      4.58122      0.00644         0.038559      0.026995      0.029633
O	     11.74695      6.67418     -4.16361         0.031145      0.017927     -0.013129
O	     13.73307      8.70032     -8.26980         0.007344      0.011039      0.005817
O	      2.00894      1.89497     -2.14594        -0.002403     -0.016362     -0.087654
O	      3.95490      4.03864     -6.33159        -0.000194     -0.036627     -0.036495
O	      5.88859      6.01945    -10.51808        -0.001515     -0.063390     -0.062311
O	      5.96171     -0.32809     -4.28060        -0.006786     -0.007362     -0.093785
O	      7.88907      1.83882     -8.46927        -0.011805     -0.021533     -0.048894
O	      9.97178      3.85863    -12.64593         0.009872     -0.045219     -0.048421
O	      3.93215      6.26894     -0.01430         0.005352     -0.023055     -0.057407
O	      5.88901      8.43833     -4.19327         0.005876     -0.038415     -0.000147
O	      7.94125     10.47139     -8.36071        -0.002462     -0.018966     -0.031423
O	      7.89310      4.07113     -2.13009        -0.002760     -0.016522     -0.088325
O	      9.82796      6.22013     -6.32139        -0.003238     -0.042079     -0.021596
O	     11.83308      8.25480    -10.46566        -0.000206     -0.038818     -0.053393
O	      3.84449      4.61546     -1.84509        -0.014582      0.048325      0.081596
O	      5.82828      6.58289     -6.01799         0.011317      0.006180      0.052583
O	      7.81890      8.77965    -10.22658        -0.001142      0.008106      0.058079
O	      7.79310      2.40715     -3.97026        -0.002092      0.065475      0.055727
O	      9.76438      4.36423     -8.16944         0.004372     -0.005393      0.054370
O	     11.74061      6.51328    -12.32289         0.010999      0.010739      0.056367
O	      5.78295      8.94837      0.27083         0.000826      0.027963      0.016135
O	      7.79635     10.91523     -3.90504         0.008285      0.001898      0.033943
O	      9.71446     13.05054     -8.10850         0.013557      0.004279      0.068427
O	      9.75757      6.72655     -1.84643        -0.004945      0.054875      0.042448
O	     11.73147      8.71591     -6.05046        -0.007824      0.039426      0.039918
O	     13.66800     10.86363    -10.22436         0.014430      0.009913      0.040798
