# total energy = -845.95832956 eV
 
CRYSTAL
PRIMVEC
3.879441 8.729515 4.258178 
7.878041 -4.454528 -4.226241 
5.867036 6.348217 -0.013971 
PRIMCOORD
124 1
Li	      5.90462      4.26639     -6.18447         0.009786      0.010247     -0.020360
Li	      9.84491      2.05309     -8.32054         0.004778      0.009059     -0.018732
Li	     11.92757      4.47227    -12.66868        -0.011624      0.009444      0.009839
Li	      7.84739      8.66144     -4.04244        -0.002618      0.007067     -0.008931
Li	      9.91820     11.06452     -8.47820        -0.008062      0.015333      0.005643
Li	     11.80747      6.38989     -6.14862         0.013285     -0.023367     -0.007647
Li	     13.79547      8.73868    -10.57987         0.021134      0.016043     -0.011926
Li	      9.76170     10.72289     -4.06319        -0.000648     -0.001637     -0.009003
Li	     13.69224      8.41739     -6.17865        -0.009547      0.000426     -0.012767
Li	     11.80116      2.11533    -14.64107         0.005861      0.031610      0.020491
Li	      7.84755      6.41805     -6.17150        -0.001278     -0.014391     -0.009223
Li	     11.76908      4.15406     -8.28914        -0.006261      0.002648     -0.015419
Li	      7.82409      4.01790     -8.28404        -0.009669     -0.000654     -0.021185
Li	     11.74082      1.79820    -10.41730        -0.020148     -0.021679     -0.022456
Li	      9.75779      8.32195     -6.15089        -0.016337      0.013168     -0.016474
Li	     13.69876      6.08847     -8.23127        -0.016023     -0.005326     -0.002216
Mn	      7.80048      4.23689     -4.00549         0.017749     -0.054450      0.027541
Mn	      9.77259      6.29604     -8.30622        -0.013228      0.016736     -0.026354
Mn	      5.78987      2.10941      0.01480         0.007693      0.005476     -0.019487
Mn	     11.72147      1.99735     -6.11585         0.018109     -0.039252      0.039335
Mn	      5.83636      8.50160     -6.17024        -0.004251      0.006140     -0.029133
Mn	      9.73364     -0.09701     -2.10254         0.019557      0.023953      0.010450
Mn	      5.88281     -0.09609     -6.11362         0.016769     -0.046308      0.037871
Mn	     11.69736     10.63708     -6.14933         0.000885      0.022227     -0.018742
Mn	      7.71516      6.50185      2.12374         0.005299      0.022209      0.013767
Mn	      1.93638      2.12745     -3.97163         0.019638     -0.069803      0.044234
Mn	      7.75804     12.85347     -4.03809        -0.000461     -0.027736     -0.022300
Mn	     17.58199     10.57533    -12.42585         0.021436      0.035400     -0.007108
Mn	      1.93029      2.15865      0.03544        -0.008108     -0.007508      0.001028
Mn	      3.94425      4.21559     -3.87351         0.003032     -0.007044     -0.029767
Mn	      5.90891      6.36798     -8.41095        -0.041171      0.001460      0.001350
Mn	      5.86094      0.01041     -2.20290        -0.017475      0.001793      0.039994
Mn	      7.89000      1.99898     -5.98967         0.019039      0.003263     -0.033334
Mn	      9.73020      4.23751    -10.60802        -0.005655     -0.005436      0.003868
Mn	      3.83894      6.61537      2.00447         0.002519      0.009440      0.040250
Mn	      5.91966      8.49838     -1.64770        -0.016750     -0.013224     -0.010323
Mn	      7.77041     10.75562     -6.34078         0.021498     -0.011634      0.022137
Mn	      7.75064      4.39455     -0.12391        -0.012444     -0.011460      0.043718
Mn	      9.83137      6.33552     -3.82966        -0.002034     -0.005385     -0.044632
Mn	     11.70096      8.53798     -8.44628         0.028488     -0.000831      0.019134
Mn	      2.00425      0.00534     -2.09144        -0.012573     -0.020533      0.038221
Mn	      3.95862      2.10804     -6.18255        -0.024337      0.018332     -0.037947
Mn	      9.79407     12.94400     -6.24504        -0.017479      0.022121      0.003515
Mn	      5.95123     -2.22771     -4.23777         0.008611     -0.017047      0.041172
Mn	      7.90465     -0.11444     -8.29687        -0.009867      0.003678     -0.031126
Mn	     13.70709     10.73379     -8.34078        -0.000177      0.019716      0.014467
Mn	      3.92511      4.33536      0.00803        -0.018229     -0.013318      0.046355
Mn	      5.88716      6.45346     -4.07216        -0.036560     -0.007841      0.014270
Mn	      7.86360      8.54920     -8.41803         0.013271      0.063324      0.010505
Mn	      7.88806      2.13489     -2.09521        -0.014266     -0.027535      0.039145
Mn	      9.84608      4.26183     -6.19548        -0.001678      0.003858     -0.035109
Mn	     11.79369      6.33657    -10.49136        -0.000744      0.028592      0.013691
O	      3.91925     -0.33302     -2.05851        -0.035338     -0.014510     -0.020658
O	      5.91235      1.89450     -6.29976        -0.034646     -0.020574      0.020193
O	      7.81591      3.86770    -10.33406        -0.067995      0.000306     -0.007132
O	      7.85616     -2.59670     -4.14511        -0.066063     -0.006286     -0.028413
O	      9.84366     -0.32421     -8.40853        -0.027440     -0.006689      0.001340
O	     11.79090      1.67498    -12.53926        -0.029363      0.019430     -0.004028
O	      5.83277      4.02709      0.08926        -0.037957     -0.003792     -0.021879
O	      7.83103      6.24500     -4.17015        -0.014793     -0.020599      0.012826
O	      9.77814      8.24445     -8.21353        -0.050686     -0.031966     -0.009372
O	      9.78704      1.82751     -2.01616        -0.060253     -0.024162     -0.033088
O	     11.78500      4.00278     -6.25244        -0.039781     -0.015197     -0.002112
O	     13.72057      6.01207    -10.30557        -0.077846     -0.019857     -0.002704
O	      5.93182      1.92960     -1.91642         0.030739      0.022643      0.025963
O	      7.82889      4.01231     -6.06750        -0.004938      0.009642      0.032179
O	      9.86641      6.14901    -10.21969         0.044821      0.072617      0.064670
O	      9.86907     -0.33370     -4.01945         0.032902      0.018981      0.024447
O	     11.80350      1.80519     -8.21624         0.034887     -0.013854      0.006476
O	     13.78265      3.86020    -12.34790         0.014759      0.033854      0.026982
O	      7.87059      6.32125      0.18798         0.029383      0.020694      0.015277
O	      9.83742      8.42205     -3.93819         0.038963      0.002128      0.019998
O	     11.74075     10.47015     -8.08581        -0.001805      0.046303      0.017481
O	     11.81660      4.08017     -1.90283         0.029635      0.011313      0.033937
O	     13.79146      6.24668     -6.06063         0.030201      0.043735      0.009185
O	     15.67750      8.25436    -10.20256         0.032658      0.033204      0.011684
O	      3.86213      2.32022     -4.24988        -0.022810      0.015080     -0.003277
O	      5.89951      4.38004     -8.43886         0.064820     -0.031247     -0.028395
O	      7.73030      6.54261    -12.59406        -0.030616     -0.011500     -0.040518
O	      7.82287      0.10102     -6.37690        -0.045482     -0.016037     -0.028347
O	      9.79993      2.16607    -10.57215         0.057108     -0.035737     -0.033658
O	     11.66117      4.31343    -14.68756        -0.006587     -0.013088     -0.053622
O	      5.75302      6.59208     -2.16887        -0.040496     -0.062955     -0.055213
O	      7.80971      8.71325     -6.28306         0.053913     -0.031554     -0.027752
O	      9.65659     10.97933    -10.45983        -0.017860     -0.021026     -0.032837
O	      9.71358      4.44305     -4.25375        -0.036117     -0.001980      0.013593
O	     11.73157      6.46773     -8.41352         0.016133     -0.017185     -0.018640
O	     13.59360      8.75400    -12.56712        -0.014505     -0.010549     -0.035422
O	      3.88154      2.42481      0.01072         0.059282      0.032420      0.019278
O	      5.85523      4.53228     -4.18509         0.035821      0.007922     -0.009938
O	      7.85046      6.55548     -8.20507         0.051202      0.008698     -0.008467
O	      7.80794      0.22654     -2.08406         0.056334      0.030416      0.004379
O	      9.79443      2.32003     -6.31666         0.043060     -0.006723     -0.000859
O	     11.75861      4.33599    -10.44894        -0.017154      0.017087     -0.000782
O	      5.81042      6.81417      2.11241         0.047315      0.020558      0.016064
O	      7.86070      8.91935     -2.00844         0.099143      0.029935     -0.007848
O	      9.74421     10.93862     -6.15969        -0.022683      0.013862     -0.003556
O	      9.73444      4.57216      0.10676         0.043477      0.030619     -0.005375
O	     11.76376      6.68723     -4.13930         0.021015      0.016154     -0.001996
O	     13.65845      8.72224     -8.28350        -0.051200      0.026422      0.003452
O	      2.01076      1.91294     -2.11312        -0.006447     -0.005641     -0.073093
O	      3.94200      4.06664     -6.35209        -0.011646     -0.040743      0.010251
O	      5.82090      6.09497    -10.50704         0.001765     -0.053694     -0.058482
O	      5.97066     -0.32174     -4.25922        -0.007772     -0.013400     -0.085443
O	      7.88234      1.82949     -8.46348        -0.004583     -0.048506     -0.006589
O	      9.92875      3.88738    -12.64877        -0.003262     -0.036233     -0.067841
O	      3.92164      6.25723     -0.04306        -0.000811     -0.009648     -0.081515
O	      5.87771      8.40500     -4.22301        -0.008113     -0.049805     -0.010314
O	      7.96134     10.43544     -8.38969        -0.007998     -0.037618     -0.062201
O	      7.88118      4.05446     -2.15166        -0.000811     -0.007737     -0.082323
O	      9.84427      6.21471     -6.33239        -0.012090     -0.030527     -0.016014
O	     11.88761      8.22006    -10.49751        -0.005934     -0.043562     -0.059897
O	      3.81976      4.58054     -1.87846         0.001236      0.050953      0.038800
O	      5.82697      6.55280     -6.07343         0.001389     -0.006512      0.054900
O	      7.74638      8.79409    -10.27287         0.010502      0.019348      0.067467
O	      7.79198      2.36713     -3.98157         0.006549      0.065751      0.056947
O	      9.77826      4.35700     -8.18380        -0.000968      0.011934      0.039191
O	     11.71134      6.50048    -12.36010         0.007077      0.012530      0.051117
O	      5.79293      8.99836      0.28309        -0.002403      0.068223      0.077837
O	      7.77347     10.89702     -3.90983         0.014320     -0.030968      0.068266
O	      9.71708     13.08403     -8.11666         0.001561      0.008612      0.048486
O	      9.74172      6.75045     -1.85068        -0.008556      0.056807      0.062290
O	     11.70677      8.68430     -6.02848         0.009500     -0.005135      0.069066
O	     13.70922     10.86532    -10.23673        -0.004394      0.009251      0.025287
