# total energy = -867.11644504 eV
 
CRYSTAL
PRIMVEC
3.952657 8.699324 4.236970 
8.012269 -4.423263 -4.222841 
5.988304 6.353590 -0.013849 
PRIMCOORD
128 1
Li	      4.05578      2.30243     -2.27242        -0.003979      0.013682     -0.001646
Li	      8.02424      6.28777    -10.29971        -0.011902      0.000577     -0.014508
Li	      7.99249      0.17302     -4.26978         0.004401      0.012902     -0.007960
Li	     12.04276      4.09847    -12.41775        -0.014018     -0.004329     -0.013644
Li	      6.11486      6.84542     -0.09201        -0.011187      0.002524     -0.002113
Li	     10.00426     10.68478     -8.20833        -0.013247      0.004465     -0.011969
Li	      9.96897      4.47723     -2.17263         0.020770      0.010585     -0.010333
Li	     14.02238      8.37120    -10.28281        -0.019350     -0.009386     -0.016742
Li	     11.96157     12.82432     -8.21877         0.005306     -0.011306     -0.007015
Li	     11.93802      6.32469     -2.11107         0.010576      0.002735      0.016188
Li	     15.95924     10.55451    -10.32007         0.002495     -0.019450      0.003853
Li	      5.99478      4.33126     -2.09334        -0.006530      0.023643      0.014223
Li	      9.98380      8.46208    -10.33028        -0.000569     -0.011778     -0.009635
Li	     10.03955      2.29496     -4.18458         0.000097      0.007977      0.017850
Li	     13.97240      6.23041    -12.45595         0.004232     -0.009233     -0.000727
Li	      9.97549      6.12429    -12.41496        -0.003523     -0.009217      0.010689
Li	      9.94359     -0.01009     -6.30188        -0.004231     -0.006909      0.021944
Li	     13.95816      3.87483    -14.52041        -0.009395     -0.004277      0.006103
Li	     11.95877     10.46036    -10.28551        -0.002234     -0.013464     -0.002135
Li	     15.95208      8.22157    -12.41643         0.002678     -0.007969     -0.000362
Mn	      7.89238      4.23370     -4.19049         0.013250      0.023487      0.003383
Mn	      9.94171      6.36197     -8.18700        -0.004228     -0.049470      0.007369
Mn	     11.95733      8.41682    -12.41270        -0.016119      0.000106      0.036048
Mn	     11.94038      2.05721     -6.28440         0.015179      0.009826      0.017727
Mn	     13.95391      4.16192    -10.29075         0.000311     -0.065313     -0.001108
Mn	      7.92953     10.62513    -10.33804        -0.000934      0.011881      0.011876
Mn	      9.83906      8.57014     -2.02039        -0.017575      0.024983      0.007816
Mn	      7.96242      2.02264    -10.30602        -0.004283     -0.018054      0.016450
Mn	     13.94033     12.79167    -10.29427        -0.021567      0.014664      0.021989
Mn	     13.88596      6.38971     -4.18431         0.034099     -0.007862     -0.006768
Mn	     11.97941     -0.19120    -12.41384         0.026466     -0.075075      0.024392
Mn	      9.91849     14.96041     -8.19609         0.005778     -0.000108      0.007834
Mn	      1.98685      2.14564     -0.00703         0.000404      0.014819     -0.004938
Mn	      3.93418      4.37330     -4.32649        -0.022909     -0.016926      0.045610
Mn	      6.04170      6.29903     -8.02080         0.000097     -0.038254     -0.033799
Mn	      5.94809     -0.01863     -2.22164         0.003175      0.014247      0.018000
Mn	      7.88969      2.13693     -6.39447         0.006433      0.015591      0.038298
Mn	     10.04305      4.10443    -10.16312         0.006190     -0.019124     -0.029547
Mn	      3.97980      6.52364      2.07242        -0.022942      0.010481     -0.000167
Mn	      5.93460      8.70180     -2.13839        -0.010564      0.025144      0.033288
Mn	      8.02215     10.64426     -5.90265         0.008971     -0.024005     -0.020951
Mn	      7.97927      4.27133     -0.01008        -0.014286     -0.012105     -0.002224
Mn	      9.90414      6.46111     -4.27794         0.004810      0.023442      0.045616
Mn	     12.01724      8.45186     -8.03784         0.008588     -0.034613     -0.056848
Mn	      2.04957      0.04282     -2.18496        -0.010931      0.028786     -0.007247
Mn	      4.04776      2.10744     -6.29002         0.017576     -0.025454      0.017590
Mn	      6.03803      4.21636    -10.35455        -0.006034     -0.001759      0.011728
Mn	      9.96079      6.47793     -0.03352         0.014441      0.028601     -0.004512
Mn	     11.94790      8.60625     -4.17890         0.004169     -0.021047      0.012074
Mn	     10.05528      2.02037    -12.45219         0.021091      0.018684     -0.035811
Mn	      4.02170      4.36986     -0.01948        -0.000367      0.024261      0.003086
Mn	      6.03265      6.47694     -4.16846        -0.009921      0.015631     -0.015046
Mn	      8.01500      8.57264     -8.23944        -0.023674     -0.000112     -0.019426
Mn	      7.99021      2.12881     -2.16554         0.025003     -0.002350      0.005021
Mn	     10.02328      4.22678     -6.30573        -0.002663     -0.005412      0.009763
Mn	     12.02751      6.36941    -10.33473         0.023211      0.024864     -0.044926
O	      4.03357     -0.29409     -2.02479         0.042785     -0.026866     -0.008998
O	      5.95214      1.77802     -6.19113        -0.052906     -0.013602     -0.027239
O	      7.99870      4.01909    -10.44783        -0.025403     -0.027000     -0.005209
O	      7.98560     -2.51515     -4.21805        -0.036858      0.011409     -0.000620
O	      9.95051     -0.36998     -8.26565        -0.053771      0.004475     -0.017662
O	     12.02514      1.80711    -12.54437        -0.012918     -0.025018      0.010868
O	      6.03464      4.04133     -0.00131         0.048643     -0.012039     -0.003045
O	      7.95107      6.13395     -4.10946        -0.043931     -0.009226     -0.021522
O	      9.97842      8.35767     -8.32766        -0.020845     -0.024703      0.002927
O	      9.98242      1.86672     -2.13035        -0.007879      0.010443     -0.009501
O	     11.94373      3.93911     -6.23875        -0.068324     -0.017078     -0.015942
O	     13.99971      6.16015    -10.42483        -0.007121     -0.019715      0.010008
O	      5.96397      1.95806     -1.91836         0.006576      0.027843      0.002711
O	      8.04145      4.03501     -6.11422         0.032544      0.056034      0.044782
O	      9.99971      6.16149    -10.22724        -0.031129      0.011355      0.039208
O	      9.94019     -0.29543     -4.09579        -0.021734     -0.001965      0.002926
O	     12.08734      1.85416     -8.21853         0.016226      0.041479      0.019425
O	     14.01949      3.97407    -12.35433         0.024234      0.050072      0.027352
O	      7.98168      6.23835      0.21486         0.026542      0.029018      0.013645
O	     10.01127      8.37502     -3.97666         0.008028      0.021677      0.031974
O	     11.98088     10.51728     -8.10883        -0.027406      0.012313      0.038017
O	     11.94406      4.08994     -1.90546        -0.008332      0.020925      0.014594
O	     14.04596      6.19486     -6.10131         0.003590      0.037583      0.047473
O	     16.00399      8.32354    -10.23587         0.034190      0.058865      0.018862
O	      3.84769      2.40029     -4.28096        -0.026287     -0.008594     -0.011708
O	      5.89962      4.39148     -8.43662        -0.047444     -0.051097     -0.037960
O	      8.01602      6.50481    -12.59430         0.028404     -0.008969     -0.001311
O	      7.91072      0.12932     -6.38207        -0.008140     -0.018914     -0.031654
O	      9.90431      2.20155    -10.52515        -0.015799     -0.037123     -0.014965
O	     11.98476      4.28713    -14.69089         0.000197     -0.035419     -0.032666
O	      5.86326      6.68856     -2.13457        -0.025012     -0.042980     -0.027647
O	      7.87419      8.74754     -6.32107        -0.040146     -0.061765     -0.030356
O	     10.02678     10.86516    -10.47978         0.014673     -0.022372     -0.010247
O	      9.84009      4.42752     -4.26166        -0.025439     -0.011314     -0.036948
O	     11.88168      6.54516     -8.41584        -0.025682     -0.024721     -0.004230
O	     14.00337      8.60979    -12.57878         0.000427     -0.016713     -0.020885
O	      3.97664      2.35676      0.03050         0.004500     -0.013437      0.000387
O	      5.95553      4.53010     -4.04905         0.063834      0.011889     -0.012751
O	      8.00866      6.64982     -8.31844         0.082602      0.029827     -0.003086
O	      7.91181      0.16254     -2.13945        -0.043940      0.017664     -0.000967
O	      9.96882      2.23407     -6.17677         0.050129      0.033803     -0.006671
O	     12.01574      4.44468    -10.43803         0.041067     -0.004464     -0.000598
O	      5.99326      6.73485      2.10567         0.036067     -0.011619      0.010224
O	      7.93760      8.88950     -2.04680         0.049947      0.018552      0.023933
O	      9.98350     10.99840     -6.21207         0.091098      0.025154      0.002048
O	      9.93071      4.48438      0.01674        -0.039258      0.017384      0.004119
O	     11.91631      6.66618     -4.05738         0.029931      0.018115     -0.006329
O	     13.99545      8.79307     -8.31887         0.042638      0.004024      0.000402
O	      2.01764      1.99511     -2.19959        -0.007845      0.004736     -0.056907
O	      4.06070      4.01781     -6.32540        -0.000500      0.023215     -0.081435
O	      6.02704      6.18874    -10.49059        -0.014299     -0.046666     -0.020989
O	      6.08492     -0.33080     -4.32048        -0.006966     -0.059319     -0.067642
O	      8.01346      1.80001     -8.42820         0.003698     -0.003741     -0.082456
O	     10.03737      3.99738    -12.57953        -0.012503     -0.006997     -0.046036
O	      4.02189      6.29474     -0.08268        -0.007228     -0.001793     -0.078611
O	      6.03365      8.36456     -4.19298         0.001918     -0.013986     -0.065035
O	      7.99663     10.55057     -8.39578        -0.009674     -0.031460     -0.012196
O	      7.99442      4.03609     -2.20046        -0.007341     -0.020596     -0.063893
O	     10.02971      6.11202     -6.31422        -0.002178      0.004968     -0.058959
O	     12.01911      8.34934    -10.45993        -0.010290     -0.010911     -0.037804
O	      3.94789      4.48580     -1.96493         0.001834      0.035821     -0.008357
O	      5.92741      6.69806     -6.03633         0.003653      0.040895      0.108189
O	      7.93788      8.66488    -10.25062         0.005686     -0.025671      0.053332
O	      8.02272      2.27041     -4.09429        -0.012240      0.032805      0.018300
O	      9.91919      4.46650     -8.16974         0.009306      0.038485      0.078541
O	     11.95613      6.47973    -12.32591         0.001841      0.014731      0.026202
O	      5.91353      8.89094      0.14677         0.010146      0.029073      0.003272
O	      7.90559     11.04653     -3.92370        -0.002350      0.058039      0.095201
O	      9.92721     12.99928     -8.13091         0.006623     -0.026741      0.051868
O	      9.98348      6.59640     -1.94436        -0.009101      0.003521      0.034040
O	     11.89447      8.82998     -6.04156        -0.008317      0.031794      0.100312
O	     13.93276     10.84002    -10.21030         0.002319      0.022383      0.042198
