# total energy = -867.15308752 eV
 
CRYSTAL
PRIMVEC
3.957856 8.691900 4.217056 
8.024216 -4.415447 -4.211597 
6.000414 6.369106 -0.013852 
PRIMCOORD
128 1
Li	      4.08822      2.27984     -2.29102         0.006704      0.015383     -0.001949
Li	      8.03589      6.33481    -10.32353        -0.001194      0.002967     -0.008561
Li	      7.98886      0.15440     -4.27756         0.018605      0.012928     -0.005902
Li	     12.06178      4.11076    -12.41619        -0.005291      0.005658     -0.007597
Li	      6.17045      6.82886     -0.10844        -0.013682     -0.003890     -0.005471
Li	     10.02220     10.63625     -8.20428        -0.005058      0.006874     -0.005901
Li	     10.00561      4.57003     -2.12983         0.011441      0.019381     -0.004293
Li	     14.04746      8.37379    -10.29612        -0.009738     -0.005571     -0.018714
Li	     11.98642     12.78104     -8.22639        -0.006037     -0.009336     -0.008050
Li	     15.98763     10.55793    -10.32731         0.005880     -0.010871     -0.006969
Li	      6.01564      4.34048     -2.09818        -0.007112      0.008843      0.016614
Li	      9.98599      8.47136    -10.33984         0.001053      0.002530     -0.015178
Li	     10.01558      2.14380     -4.18961         0.002280      0.002695      0.016612
Li	     13.99465      6.25644    -12.44590         0.001516     -0.006422     -0.003454
Li	      9.98823      6.13752    -12.40514        -0.007359      0.001026      0.011040
Li	      9.92314     -0.12018     -6.29485         0.003857     -0.011779      0.023878
Li	     13.97958      3.88428    -14.51473        -0.008663     -0.002144      0.013054
Li	     11.99105     10.46233    -10.29489        -0.016423     -0.018727     -0.005211
Li	     11.91493      4.45984     -4.14787         0.005681     -0.013510      0.012552
Li	     15.98576      8.22897    -12.41571        -0.004907     -0.006350      0.004619
Mn	      7.92113      4.23874     -4.17119        -0.018066      0.013845      0.016696
Mn	      9.94966      6.37606     -8.18679         0.012386     -0.028689      0.016965
Mn	     11.96726      8.42735    -12.40345        -0.022123      0.004624     -0.013049
Mn	     11.96087      2.08148     -6.28158         0.013304     -0.021019      0.012576
Mn	     13.97557      4.17691    -10.28801         0.005752     -0.051051      0.025409
Mn	      7.93976     10.62198    -10.33167         0.004498     -0.026017     -0.019218
Mn	      9.85650      8.57031     -2.01675        -0.012141      0.052464     -0.013728
Mn	      7.98139      2.02639    -10.28425        -0.010689     -0.030252      0.012688
Mn	     13.97096     12.80128    -10.29499         0.014305      0.022640     -0.005917
Mn	     13.90474      6.42323     -4.15717         0.021853      0.000501     -0.012375
Mn	      3.98228      4.24238     -8.18064         0.018342     -0.055895      0.038697
Mn	      9.92589     14.96620     -8.22673         0.011212     -0.056847     -0.002414
Mn	      1.94029      2.17303     -0.07144         0.032501      0.022905      0.012897
Mn	      3.94339      4.39436     -4.31896        -0.021718      0.026718      0.043553
Mn	      6.05352      6.30726     -8.02571         0.006126     -0.026992     -0.026650
Mn	      5.96140     -0.02711     -2.20671         0.014747      0.032683      0.032291
Mn	      7.89706      2.14571     -6.38629         0.003793      0.017792      0.032815
Mn	     10.06170      4.11358    -10.16196        -0.010145      0.001595     -0.040998
Mn	      4.00116      6.45648      2.09511        -0.013932      0.004311      0.006278
Mn	      5.97265      8.72026     -2.16888        -0.020178      0.009784      0.041371
Mn	      8.03976     10.64901     -5.90907         0.007221     -0.032076     -0.018671
Mn	      7.99428      4.26732     -0.02056        -0.007934     -0.026020     -0.009916
Mn	      9.90910      6.49407     -4.24644        -0.007515      0.023065      0.019724
Mn	     12.04147      8.45716     -8.04473        -0.008568     -0.009818     -0.042116
Mn	      2.05115      0.06458     -2.15891        -0.017452      0.035849      0.022991
Mn	      4.05811      2.12611     -6.26698        -0.003139      0.018651     -0.017495
Mn	      6.06015      4.22146    -10.34959        -0.017435     -0.002687      0.017256
Mn	      9.99427      6.47463     -0.06369         0.006227     -0.008430     -0.029396
Mn	     11.95232      8.57826     -4.18034        -0.008390      0.067404     -0.051445
Mn	     10.07754      2.02586    -12.43908         0.009368      0.024685      0.000581
Mn	      4.02619      4.36606     -0.04004        -0.004307      0.006146      0.018154
Mn	      6.06097      6.48736     -4.17190         0.008713      0.017300     -0.026524
Mn	      8.02256      8.57708     -8.24278        -0.022547     -0.005716      0.011183
Mn	      8.01254      2.12932     -2.16023        -0.014582     -0.000967      0.009100
Mn	     10.01093      4.24345     -6.30877        -0.002312      0.069282     -0.039673
Mn	     12.04430      6.37850    -10.33023         0.002546      0.036696     -0.025984
O	      4.05169     -0.30504     -2.02528         0.039575     -0.052758     -0.003104
O	      5.95738      1.79330     -6.16439        -0.077466     -0.003554     -0.019029
O	      8.01982      4.02257    -10.43897        -0.024589     -0.019306     -0.000029
O	      7.97663     -2.52657     -4.12859        -0.050018      0.026381      0.000438
O	      9.93080     -0.35700     -8.25613        -0.073941     -0.009030     -0.003521
O	     12.04373      1.82289    -12.53283        -0.005454     -0.017001      0.010124
O	      6.04803      4.04619     -0.01553         0.085396      0.006734      0.003638
O	      7.97480      6.14329     -4.10853        -0.054702     -0.013186     -0.022232
O	      9.98270      8.37105     -8.32767        -0.029309     -0.014368     -0.009328
O	     10.02810      1.82461     -2.12577         0.022960      0.002256     -0.001282
O	     11.97045      3.98600     -6.13968        -0.051023     -0.009732     -0.007420
O	     14.01398      6.17576    -10.41908        -0.009971     -0.020296      0.008465
O	      5.96552      1.94589     -1.91593        -0.003657     -0.000465      0.000142
O	      8.07096      4.04955     -6.11344         0.014683      0.007224      0.013439
O	     10.01978      6.17714    -10.22919        -0.025299     -0.018980      0.035402
O	      9.93902     -0.26898     -4.11229        -0.053454     -0.006812      0.018659
O	     12.13067      1.88886     -8.21433        -0.001027      0.028597      0.011530
O	     14.04422      3.98326    -12.34340         0.030463      0.050363      0.015300
O	      8.01702      6.23829      0.20159         0.042691      0.034115      0.022325
O	     10.00451      8.38900     -3.96496         0.025480      0.020604      0.024217
O	     12.01424     10.52225     -8.11579        -0.032563     -0.010756      0.034342
O	     11.94936      3.99124     -1.97642        -0.007028     -0.008021     -0.002003
O	     14.07238      6.20750     -6.09853         0.025928      0.040033      0.014537
O	     16.03997      8.33248    -10.23206         0.030933      0.051955      0.020689
O	      3.84712      2.41861     -4.27471        -0.021930     -0.023684     -0.005949
O	      5.91647      4.40566     -8.42679        -0.047613     -0.062565     -0.029749
O	      8.03448      6.55452    -12.59834         0.049880      0.004367     -0.023476
O	      7.89683      0.16934     -6.36787        -0.010617     -0.018860     -0.020590
O	      9.92685      2.20742    -10.51273        -0.018961     -0.043281     -0.007103
O	     11.99084      4.29253    -14.65749        -0.044462     -0.035746     -0.021158
O	      5.88080      6.70828     -2.14177        -0.029244     -0.008772     -0.010331
O	      7.88272      8.75056     -6.32524        -0.042831     -0.061732     -0.039637
O	     10.05298     10.85266    -10.46505         0.015486      0.015628      0.024373
O	      9.93168      4.46179     -4.25855        -0.022717     -0.009407     -0.017447
O	     11.89183      6.55419     -8.40730        -0.023411     -0.038257     -0.016955
O	     14.05184      8.63554    -12.56674         0.039552      0.002114     -0.005845
O	      3.93625      2.38409      0.01396        -0.057549      0.002472      0.001120
O	      6.00102      4.54263     -4.05247         0.084165     -0.002204     -0.011270
O	      8.01641      6.65698     -8.33272         0.087234      0.020175      0.001378
O	      7.91970      0.15919     -2.12747        -0.040231      0.028679     -0.007017
O	      9.99633      2.26303     -6.17961         0.045925      0.017798     -0.003657
O	     12.03572      4.45519    -10.43022         0.044647     -0.010472     -0.004059
O	      6.01808      6.71504      2.10161         0.053733     -0.014113      0.009299
O	      7.94346      8.90348     -2.01022         0.094718     -0.003888     -0.001368
O	     10.00776     10.99617     -6.21749         0.099193      0.027860     -0.000437
O	      9.93473      4.48335     -0.01726        -0.072447      0.063821      0.005578
O	     11.92218      6.62253     -4.16591         0.052392     -0.010936     -0.003460
O	     14.02505      8.79667     -8.32345         0.038990      0.001584     -0.012671
O	      2.11743      2.01118     -2.20751        -0.009554      0.023858     -0.074620
O	      4.07704      4.04050     -6.30675        -0.009207     -0.024288     -0.088331
O	      6.03757      6.18693    -10.49560        -0.012023     -0.054163     -0.004017
O	      6.10222     -0.33079     -4.30074        -0.020956     -0.062624     -0.063701
O	      8.02550      1.79231     -8.41045         0.003603     -0.024342     -0.066127
O	     10.05556      4.00419    -12.56167        -0.008550      0.001270     -0.047056
O	      4.02413      6.30971     -0.07635        -0.006249      0.004989     -0.069812
O	      6.05066      8.37925     -4.20175        -0.000361     -0.012742     -0.086967
O	      8.00929     10.54829     -8.38385        -0.009127     -0.037363      0.000255
O	      8.02158      4.04241     -2.19787        -0.001888     -0.011982     -0.058307
O	     10.00842      6.12916     -6.31597        -0.000697     -0.027674     -0.052517
O	     12.03171      8.35744    -10.44999        -0.003843     -0.013377      0.003360
O	      3.95511      4.51574     -2.00731        -0.002299      0.055549     -0.039255
O	      5.94826      6.70605     -6.04092         0.004936      0.033335      0.107262
O	      7.94672      8.67226    -10.24654         0.001757      0.001015      0.042277
O	      8.04701      2.27595     -4.09740        -0.001463      0.018693     -0.003774
O	      9.94621      4.47862     -8.17054        -0.001493      0.018040      0.117917
O	     11.97093      6.48573    -12.31627         0.008789     -0.012367      0.044307
O	      5.83517      8.88151      0.14753         0.011431      0.029344      0.004205
O	      7.92618     11.05415     -3.92663         0.006511      0.027892      0.112183
O	      9.95584     12.99413     -8.14718         0.005885     -0.010590      0.049114
O	      9.90257      6.62698     -1.94541         0.017124     -0.005361      0.056063
O	     11.90246      8.83017     -6.05156         0.004983      0.020200      0.119655
O	     13.96232     10.84744    -10.21622         0.008900      0.041959      0.036243
