# total energy = -867.07035740 eV
 
CRYSTAL
PRIMVEC
3.969814 8.692939 4.212378 
8.032490 -4.411398 -4.200073 
6.005869 6.370462 -0.013812 
PRIMCOORD
128 1
Li	      4.19433      2.45692     -2.25068        -0.013243      0.003682     -0.011490
Li	      8.04987      6.31065    -10.29711        -0.005491      0.002982     -0.011081
Li	      7.99805      0.14271     -4.23767         0.021190      0.000815     -0.002637
Li	     12.08083      4.06293    -12.36386        -0.010932     -0.013018     -0.015035
Li	      6.17915      6.80349     -0.14441        -0.012496      0.003208     -0.012380
Li	     10.03475     10.65598     -8.18997        -0.005569      0.003222     -0.012003
Li	      9.98318      4.48927     -2.13149         0.020584      0.000467     -0.002516
Li	     14.06599      8.40764    -10.25668        -0.012913     -0.013243     -0.016003
Li	     12.00515     12.84302     -8.20218         0.003108     -0.022266     -0.003634
Li	      8.01987     -2.22434     -6.27950         0.009664      0.009357      0.018928
Li	     15.99411     10.58555    -10.30859         0.011024     -0.017901      0.006104
Li	     10.02048      8.49889    -10.30809         0.002473     -0.022111     -0.003885
Li	     10.00491      2.12185     -4.17290         0.009354      0.009575      0.016964
Li	     14.00911      6.24082    -12.41435         0.011823     -0.019218      0.006206
Li	     10.01902      6.14571    -12.36994        -0.006560     -0.011240      0.010998
Li	      9.95440      0.02518     -6.28356         0.001461     -0.006000      0.021176
Li	     14.00312      3.90275    -14.48238        -0.007030     -0.009802      0.004350
Li	     12.00412     10.49189    -10.26350        -0.006093     -0.011840      0.010974
Li	     11.93925      4.37071     -4.17695         0.001398     -0.005695      0.020918
Li	     15.98840      8.24829    -12.37542        -0.006536     -0.009181      0.002467
Mn	      7.88630      4.22927     -4.11964        -0.024881      0.033517     -0.002304
Mn	      9.96190      6.37810     -8.16366         0.026597     -0.030512     -0.025108
Mn	     12.00263      8.45036    -12.36454        -0.016565      0.006371      0.005414
Mn	     11.97770      2.08100     -6.26862         0.026802      0.002643      0.022429
Mn	     13.99878      4.18940    -10.25164         0.025277     -0.031784      0.003649
Mn	      7.95272     10.63387    -10.31678         0.016364     -0.051718     -0.002818
Mn	      9.87109      8.57596     -2.01348        -0.027164      0.031841     -0.004299
Mn	      7.97747      2.03178    -10.26971         0.024269     -0.027321     -0.022596
Mn	     13.98740     12.79667    -10.25835        -0.013712      0.009943      0.002407
Mn	     13.96260      6.42757     -4.16254         0.023842      0.003344      0.024879
Mn	     12.01434     -0.15658    -12.35764         0.025252     -0.037536      0.007030
Mn	      9.93775     14.98017     -8.21077         0.015481     -0.053226     -0.003648
Mn	      2.01022      2.15287     -0.02234         0.003356      0.001341      0.003584
Mn	      3.98749      4.38522     -4.27729        -0.011488      0.038748      0.025307
Mn	      6.06383      6.31749     -8.00849        -0.002335     -0.014761     -0.007166
Mn	      5.97890     -0.05629     -2.18350        -0.004799     -0.013264      0.023617
Mn	      7.91020      2.13505     -6.36356        -0.005976      0.021933      0.028751
Mn	     10.07286      4.11514    -10.14006        -0.014601     -0.007633     -0.026537
Mn	      3.99534      6.49888      2.08405         0.001633      0.001381      0.004764
Mn	      5.97220      8.73193     -2.17118        -0.010029      0.034682      0.023366
Mn	      8.04897     10.66326     -5.90128        -0.003712     -0.016312     -0.008015
Mn	      7.96404      4.28990     -0.07689        -0.006509     -0.014553      0.020461
Mn	      9.89527      6.48157     -4.25754        -0.008462      0.022723      0.028647
Mn	     12.05804      8.46141     -8.03329        -0.016216     -0.010762     -0.027333
Mn	      2.08991      0.04730     -2.16188        -0.024922      0.038665      0.006283
Mn	      4.08022      2.13010     -6.26149        -0.008332      0.034947      0.030526
Mn	      6.05445      4.23622    -10.33046         0.028836     -0.007189     -0.019866
Mn	      9.98180      6.46365     -0.04324         0.022368     -0.013298      0.029848
Mn	     11.98183      8.58098     -4.18088        -0.004057      0.060762     -0.026580
Mn	     10.07972      2.03120    -12.40301         0.001575      0.002484     -0.003231
Mn	      4.07496      4.39386     -0.05574        -0.025700      0.034691      0.006947
Mn	      6.06512      6.47632     -4.15560        -0.007455      0.038587      0.031292
Mn	      8.03904      8.58257     -8.22457         0.024775     -0.001396     -0.015806
Mn	      7.99689      2.11715     -2.14932         0.025387     -0.011904      0.030492
Mn	      9.99694      4.23428     -6.28716        -0.003473      0.057263     -0.028299
Mn	     12.06395      6.37766    -10.29690         0.005833      0.002174     -0.003130
O	      4.07816     -0.32256     -2.00176         0.056834     -0.024751     -0.016588
O	      5.98419      1.78804     -6.15810        -0.050632     -0.014253     -0.021218
O	      8.01507      4.03220    -10.41316        -0.018457     -0.039460      0.003114
O	      7.99106     -2.50037     -4.21828        -0.041418      0.031717     -0.000577
O	      9.96317     -0.35544     -8.24710        -0.056349     -0.010152     -0.006855
O	     12.04709      1.84036    -12.49486        -0.009977     -0.031023      0.008192
O	      6.06323      4.02393      0.10460         0.058872     -0.025261     -0.017024
O	      7.96927      6.13429     -4.05218        -0.052020     -0.013673     -0.021755
O	      9.99937      8.37884     -8.30653        -0.016788     -0.040333      0.001553
O	      9.97608      1.84601     -2.11198        -0.041188      0.031770     -0.000473
O	     11.94799      3.99076     -6.14078        -0.055106     -0.006730     -0.007365
O	     14.03140      6.18655    -10.38844        -0.009231     -0.028405      0.010854
O	      6.02246      1.89708     -1.90512        -0.002733      0.043099      0.036613
O	      8.05204      4.03219     -6.07907         0.024790      0.030157      0.057511
O	     10.04411      6.18244    -10.20612        -0.020202      0.010007      0.056757
O	      9.97191     -0.26622     -4.08655        -0.026567      0.028333      0.000455
O	     12.13866      1.88150     -8.19774         0.004065      0.018076      0.038739
O	     14.06331      3.99492    -12.31532        -0.003737      0.036473      0.021349
O	      8.00729      6.24304      0.20088        -0.002705      0.045847      0.039364
O	     10.03663      8.37897     -3.97288         0.027636      0.029249      0.056811
O	     12.02976     10.52952     -8.09957        -0.021324      0.010752      0.055276
O	     11.95701      4.08003     -1.98042        -0.027866      0.028729      0.000430
O	     14.12346      6.22823     -6.09160         0.004508      0.017364      0.039301
O	     16.04921      8.34159    -10.20872        -0.008363      0.039688      0.020536
O	      3.88045      2.42423     -4.24273        -0.003320     -0.031254     -0.038767
O	      5.91597      4.41991     -8.40764        -0.037865     -0.053505     -0.041767
O	      8.05615      6.52792    -12.56377         0.035737     -0.015097     -0.011465
O	      7.92812      0.10646     -6.35020        -0.016243     -0.028881     -0.018613
O	      9.91931      2.20627    -10.47853        -0.012360     -0.056358     -0.039766
O	     12.02063      4.27324    -14.63414         0.002135     -0.033336     -0.036706
O	      5.86545      6.77071     -2.13673        -0.004137     -0.029861     -0.038091
O	      7.90005      8.76568     -6.30166        -0.037490     -0.054529     -0.043470
O	     10.04132     10.87365    -10.45745         0.032977     -0.013830     -0.011343
O	      9.91323      4.45282     -4.24405        -0.016237     -0.028473     -0.019395
O	     11.90338      6.55218     -8.37249        -0.013395     -0.055301     -0.041022
O	     14.00570      8.61923    -12.52790         0.001466     -0.031518     -0.034911
O	      4.04328      2.37527      0.00051         0.049797     -0.025787      0.007122
O	      5.99820      4.55783     -4.12803         0.064962      0.000071      0.009574
O	      8.03261      6.66255     -8.31469         0.047312      0.021407     -0.000277
O	      7.93868      0.13611     -2.11922        -0.046160      0.017800     -0.009435
O	      9.97543      2.24849     -6.16034         0.022086      0.032033     -0.003176
O	     12.06158      4.45873    -10.39686         0.048913      0.002792      0.000661
O	      6.02817      6.72159      2.10682         0.050515     -0.026857      0.007530
O	      7.98299      8.90444     -2.02186         0.064196      0.001762      0.009566
O	     10.01776     11.00914     -6.20806         0.054105      0.020621      0.000468
O	      9.92352      4.48255     -0.01321        -0.042559      0.017634     -0.007582
O	     11.96005      6.59547     -4.05426         0.024187      0.029143     -0.003789
O	     14.04703      8.80504     -8.29008         0.053906      0.006951     -0.001320
O	      2.04237      2.00588     -2.18353        -0.015669      0.031024     -0.072046
O	      4.07876      4.04047     -6.28618         0.001657     -0.031613     -0.067895
O	      6.03588      6.20990    -10.47751        -0.003874     -0.027238     -0.013399
O	      6.09606     -0.34298     -4.28785        -0.008657     -0.019963     -0.095963
O	      8.02540      1.78121     -8.39517        -0.000325     -0.043940     -0.074307
O	     10.06790      4.00797    -12.51161        -0.003651     -0.004952     -0.053679
O	      4.02740      6.35218     -0.07709        -0.015485      0.033210     -0.073290
O	      6.06353      8.38675     -4.18030         0.001525     -0.033055     -0.067881
O	      8.02052     10.55682     -8.37093        -0.002687     -0.032171     -0.016908
O	      8.08135      4.00355     -2.18150        -0.010822     -0.022414     -0.097310
O	     10.00986      6.12721     -6.28944         0.000651     -0.040800     -0.069514
O	     12.05263      8.35462    -10.40530        -0.002264     -0.007179     -0.053779
O	      3.88138      4.53497     -1.98615         0.012756      0.043676      0.003359
O	      5.97089      6.71757     -6.02398        -0.000591      0.020112      0.085032
O	      7.97164      8.67263    -10.24697         0.001411     -0.011997      0.051037
O	      8.02587      2.25490     -4.06094        -0.020810      0.041647      0.029155
O	      9.93809      4.47846     -8.15006        -0.006906      0.047472      0.106358
O	     11.99736      6.50693    -12.27877        -0.004021      0.039027      0.030355
O	      5.86621      8.88129      0.12015         0.012407      0.045412      0.002635
O	      7.95639     11.06426     -3.91717        -0.001819      0.022850      0.081541
O	      9.95696     13.01876     -8.14062        -0.000037     -0.010113      0.049666
O	     10.01059      6.60166     -1.95492        -0.019445      0.040257      0.029924
O	     11.92336      8.82518     -6.04359        -0.007386      0.047186      0.105575
O	     13.98242     10.85362    -10.17256        -0.002999      0.034053      0.030928
