# total energy = -92.21587087 eV
 
CRYSTAL
PRIMVEC
0.000000 2.064316 2.064317 
8.229754 2.121997 -2.121948 
-0.001163 4.246892 -4.246756 
PRIMCOORD
16 1
Li	      4.18609      2.22521     -2.22511         0.004369      0.011965     -0.012404
Li	      6.04015      4.27347     -2.20944         0.023445     -0.005013      0.004886
Li	      8.09345      6.30688     -2.17922         0.018709     -0.009055      0.009553
Li	      2.17296      4.13658     -2.07204        -0.015761     -0.020804      0.020676
Mn	      8.19872      4.18072     -0.05222        -0.024127      0.003583     -0.003947
Mn	      2.11353      2.12072     -0.05665         0.007624      0.026447     -0.025726
Ni	      4.17581      6.22501     -2.09643        -0.061174      0.004185     -0.005071
Ni	      6.13987      6.32212     -4.25794        -0.024928      0.038122     -0.037971
O	      6.17786      6.38050     -2.25202         0.117016     -0.105372      0.105532
O	      0.08008      4.35586     -2.29160         0.067991      0.026378     -0.026386
O	      6.33533      4.15412     -0.02569         0.090402      0.097935     -0.097848
O	      0.09181      1.98129      0.08286         0.015633     -0.024282      0.024559
O	      1.99805      4.04305      0.08538         0.020564     -0.036931      0.036959
O	      4.06634      4.23581     -2.17157        -0.015783     -0.122487      0.123106
O	      1.98328      6.43861     -2.31006        -0.077256      0.031043     -0.031338
O	      3.99133      6.28265     -4.21841        -0.146724      0.084287     -0.084580
