# total energy = -887.97539917 eV
 
CRYSTAL
PRIMVEC
4.068830 8.641711 4.208660 
8.168437 -4.348444 -4.209752 
6.152938 6.340700 -0.013786 
PRIMCOORD
132 1
Li	      4.07911      2.29488     -2.12355        -0.002845     -0.007282     -0.003378
Li	      8.26315      6.21843    -10.30964         0.001267     -0.006133     -0.010598
Li	      8.17219      0.15413     -4.22361         0.008481      0.014434      0.002361
Li	     12.31806      4.06920    -12.40684        -0.006403      0.001594     -0.022719
Li	      6.11753      6.61849     -0.01502         0.001512     -0.011550     -0.003599
Li	     10.29787     10.54046     -8.20865         0.001393     -0.008271     -0.016480
Li	     10.21050      4.47076     -2.11664         0.002875      0.012570      0.005505
Li	     14.35373      8.39352    -10.30746        -0.015743      0.001199     -0.027365
Li	      4.08278     -0.01137     -4.17634        -0.007683     -0.003751      0.004087
Li	     12.28485     12.75549     -8.20234        -0.001487     -0.000519     -0.008996
Li	      8.15373     -2.15526     -6.29192        -0.007262      0.008873      0.007253
Li	     12.29018      2.00386    -14.52279         0.007568      0.000043     -0.011812
Li	      6.11256      4.29854     -2.07617        -0.005457     -0.003835      0.005148
Li	     10.25042      8.43400    -10.30992         0.000710     -0.001880     -0.009058
Li	     10.18568      2.15989     -4.19006        -0.003561      0.012296      0.010642
Li	     14.32220      6.32224    -12.42253         0.005716     -0.002077     -0.016083
Li	      6.07711      2.22287     -4.19751         0.012973     -0.001193      0.029364
Li	     10.22610      6.12565    -12.37837        -0.007604     -0.012064     -0.007501
Li	     10.14424      0.06497     -6.28466        -0.005294      0.017538      0.013993
Li	     14.32453      4.00630    -14.47319         0.001919      0.006208      0.002653
Li	      8.11648      6.54072     -2.08631         0.006785     -0.004578      0.033901
Li	     12.26100     10.44796    -10.27583        -0.006046     -0.007806     -0.009810
Li	     12.17938      4.37909     -4.17526        -0.009296      0.011371      0.014145
Li	     16.35826      8.32343    -12.37207        -0.004285      0.008028     -0.001660
Mn	      8.12372      4.26945     -4.16592         0.029896     -0.003648      0.004944
Mn	     10.20691      6.36890     -8.19934         0.019411     -0.045537      0.026514
Mn	     12.23546      8.41572    -12.39316         0.011750     -0.009634     -0.018582
Mn	     12.18164      2.07293     -6.28889        -0.015796     -0.031148      0.039220
Mn	     14.27352      4.20289    -10.29558         0.013786     -0.011948      0.008698
Mn	      8.17103     10.62579    -10.27012        -0.002422      0.030747     -0.004287
Mn	     10.15617      8.58514     -2.06261         0.032943     -0.000688      0.016624
Mn	      8.16914      2.04069    -10.30563         0.021805     -0.043255      0.028397
Mn	     14.27254     12.73465    -10.28508         0.014403     -0.006133     -0.031807
Mn	     14.21322      6.38317     -4.18838        -0.017599     -0.024756      0.043205
Mn	     12.23720     -0.12434    -12.40106         0.006992     -0.016891      0.009619
Mn	     10.20694     14.94555     -8.16318        -0.004667      0.042243     -0.001892
Mn	      2.04210      2.15045      0.01261        -0.004023      0.000367     -0.003081
Mn	      4.01208      4.34174     -4.31593        -0.006157     -0.003064      0.065946
Mn	      6.21643      6.30240     -8.08736         0.006484     -0.019544     -0.053748
Mn	      6.12352     -0.02978     -2.09383        -0.000454      0.006162      0.001969
Mn	      8.08594      2.20824     -6.45924         0.007693      0.022014      0.024297
Mn	     10.31232      4.07790    -10.13882         0.001174     -0.018479     -0.029820
Mn	      4.07511      6.47172      2.11665        -0.000099     -0.003488     -0.001331
Mn	      6.05240      8.65700     -2.20263        -0.009444      0.011106      0.060157
Mn	      8.24877     10.62496     -5.98825         0.001948     -0.023000     -0.049173
Mn	      8.15921      4.28949      0.01080         0.001237      0.000570      0.001772
Mn	     10.12584      6.52092     -4.34486         0.012660      0.021437      0.032953
Mn	     12.34462      8.40312     -8.04409        -0.006878     -0.015031     -0.038320
Mn	      2.06522      0.01342     -2.12006         0.001243     -0.028842      0.003878
Mn	      8.19380     10.72438     -2.10504        -0.009303      0.019832     -0.004516
Mn	      6.22480      4.22145    -10.30740         0.016242      0.015767     -0.043065
Mn	      6.16214     -2.13201     -4.21164        -0.006628      0.010544      0.024486
Mn	     12.26512      8.55848     -4.18934        -0.014293      0.054105     -0.018571
Mn	     10.27592      2.01644    -12.43504        -0.033296      0.002005     -0.009406
Mn	      4.10108      4.34098     -0.01502         0.004191     -0.045190      0.001044
Mn	      6.16324      6.41281     -4.20583        -0.012857      0.012273     -0.011867
Mn	      8.26136      8.54894     -8.20500         0.022817      0.024172     -0.038331
Mn	      8.19411      2.18960     -2.11203        -0.011926      0.006743      0.040176
Mn	     10.23461      4.24623     -6.29047        -0.019276      0.043749     -0.031669
Mn	     12.31147      6.34081    -10.33134        -0.031994      0.008739     -0.016301
O	      4.15611     -0.25560     -2.10946         0.047657      0.024713      0.005322
O	      6.06150      1.84816     -6.17274        -0.073118     -0.042492     -0.003846
O	      8.21017      4.03805    -10.40165        -0.002276     -0.021371      0.014016
O	      8.25776     -2.43550     -4.20974         0.107521     -0.024363      0.004622
O	     10.13562     -0.34937     -8.25344        -0.038005     -0.005598     -0.019222
O	     12.22899      1.85757    -12.53024        -0.060597     -0.030921      0.006676
O	      6.18787      4.06775     -0.00903         0.053466      0.032389      0.000940
O	      8.10582      6.17535     -4.06218        -0.074515     -0.039041      0.000043
O	     10.25804      8.36412     -8.30198         0.014371     -0.020607      0.020644
O	     10.29568      1.88565     -2.10401         0.095205     -0.012824      0.001965
O	     12.17814      3.97965     -6.14695        -0.046643     -0.013335     -0.017316
O	     14.26726      6.18365    -10.43103        -0.051600     -0.033373      0.014039
O	      6.02160      1.94751     -1.96207        -0.027066     -0.022824     -0.032234
O	      8.29954      4.12872     -6.07678         0.056290      0.051182      0.020111
O	     10.32090      6.20104    -10.24131         0.063759      0.041699      0.010811
O	     10.13708     -0.21493     -4.10791        -0.002253      0.014340     -0.008238
O	     12.36661      1.88740     -8.22669         0.031225     -0.008387     -0.039745
O	     14.35801      3.97133    -12.31894        -0.024981     -0.027344      0.043527
O	      8.06862      6.26716      0.14156        -0.046998     -0.025429     -0.023078
O	     10.32415      8.43608     -3.97538         0.051661      0.046130      0.012511
O	     12.34920     10.51511     -8.13865         0.062834      0.034085      0.009938
O	     12.16693      4.10372     -2.00090         0.008088      0.011931     -0.027858
O	     14.39379      6.19588     -6.13266         0.032162     -0.013305     -0.035512
O	     16.39601      8.28589    -10.22056        -0.023525     -0.018540      0.040331
O	      4.03506      2.31133     -4.29045         0.010395      0.028957     -0.032092
O	      6.03346      4.40786     -8.36738        -0.040523      0.003510      0.047927
O	      8.26032      6.50460    -12.49396        -0.000398     -0.004663      0.017110
O	      8.07841      0.08108     -6.35745        -0.061620     -0.034321     -0.019843
O	     10.10586      2.16060    -10.52165        -0.047646     -0.060481     -0.027846
O	     12.37774      4.33390    -14.64332         0.027271      0.015521      0.043744
O	      6.06962      6.64149     -2.17684         0.010409      0.027067     -0.038551
O	      8.07319      8.73703     -6.26171        -0.046844      0.010658      0.053785
O	     10.30507     10.82885    -10.39904        -0.001611     -0.003261      0.018589
O	     10.11991      4.41145     -4.25022        -0.051012     -0.017265     -0.020184
O	     12.14888      6.48928     -8.41734        -0.043313     -0.045326     -0.020877
O	     14.39960      8.65233    -12.53695         0.055927      0.019747      0.027906
O	      3.99280      2.38433      0.02459        -0.114402      0.014640     -0.005252
O	      6.16467      4.43059     -4.07260         0.052177      0.032909     -0.017352
O	      8.27283      6.63971     -8.34273         0.045934     -0.005824      0.018841
O	      8.09344      0.19715     -2.07833        -0.049459     -0.028580      0.007851
O	     10.20737      2.24918     -6.19465         0.020381      0.022705     -0.018556
O	     12.33333      4.43689    -10.43075         0.073210      0.032007     -0.000498
O	      6.02150      6.70501      2.12764        -0.087162      0.007390     -0.005371
O	      8.19485      8.74312     -1.96635         0.064431      0.031868     -0.016506
O	     10.29886     10.95452     -6.24238         0.050534      0.005766      0.022588
O	     10.13639      4.51429      0.03192        -0.046972     -0.030886      0.008273
O	     12.22700      6.56304     -4.08945         0.005275      0.030139     -0.013499
O	     14.36284      8.75376     -8.33166         0.067346      0.020747     -0.001321
O	      2.06683      1.94406     -2.19860        -0.020552      0.002259     -0.035099
O	      4.12225      3.98098     -6.31486         0.005453     -0.017633     -0.045827
O	      6.19503      6.20386    -10.34720         0.006359     -0.017057      0.081218
O	      6.15431     -0.17629     -4.28201        -0.009543      0.040210     -0.064622
O	      8.23209      1.80865     -8.43349         0.003462     -0.028828     -0.099916
O	     10.27581      3.99452    -12.54021        -0.001574     -0.044727      0.028659
O	      4.10073      6.27363     -0.09130        -0.014053     -0.001386     -0.049326
O	      6.16395      8.31004     -4.20394        -0.001776     -0.022460     -0.054417
O	      8.23031     10.52981     -8.24884         0.001240     -0.010789      0.069926
O	      8.18855      4.14496     -2.17602        -0.003573      0.039060     -0.066284
O	     10.27222      6.13680     -6.32561        -0.000437     -0.021713     -0.097181
O	     12.31100      8.31818    -10.43993        -0.000747     -0.050238      0.031642
O	      4.04381      4.43949     -2.02109        -0.016124      0.015160     -0.080760
O	      6.10347      6.65326     -6.08778         0.005597      0.013792      0.051265
O	      8.17507      8.69641    -10.19284        -0.001196     -0.005032      0.033152
O	      8.12111      2.28991     -4.06624         0.008734      0.045184     -0.021577
O	     10.17072      4.47721     -8.16180        -0.002518      0.035404      0.094634
O	     12.24151      6.46005    -12.32064         0.011920     -0.035316      0.055996
O	      6.07933      8.75250      0.07311        -0.015950      0.014113     -0.075006
O	      8.13762     10.96703     -3.98838         0.000553      0.026098      0.053843
O	     10.20970     13.01689     -8.08599        -0.000033     -0.007004      0.036703
O	     10.15648      6.60735     -1.95644         0.011096      0.044902     -0.027654
O	     12.20355      8.79103     -6.06201        -0.005064      0.038005      0.095391
O	     14.27856     10.77838    -10.21604         0.005941     -0.027250      0.049806
