# total energy = -909.65338307 eV
 
CRYSTAL
PRIMVEC
4.128127 8.526216 4.126727 
8.408156 -4.335072 -4.147825 
6.260651 6.378294 -0.013098 
PRIMCOORD
136 1
Li	      4.25723      2.12639     -2.04338         0.004348     -0.001175      0.000134
Li	      6.29020      4.12291     -6.30307         0.012865     -0.025492      0.010162
Li	      8.37802      6.35910    -10.39927         0.032817     -0.002319     -0.001755
Li	      8.37876     -0.05266     -4.13998        -0.008704     -0.000275      0.009620
Li	     10.62572      1.99773     -8.42601        -0.009407     -0.032354      0.006113
Li	      6.27798      6.47050      0.05885        -0.002354      0.009857     -0.011220
Li	      8.28933      8.50653     -4.18444         0.004534     -0.011338      0.002434
Li	     10.40248     10.56678     -8.33246        -0.006271     -0.014725     -0.029459
Li	     10.41292      4.26085     -2.08015        -0.000239      0.015161      0.001758
Li	     12.67175      6.33639     -6.37987         0.002465     -0.023722     -0.000496
Li	      4.20217      0.00388     -4.14715         0.003384     -0.000696      0.006219
Li	     10.37827     10.53520     -4.18901         0.010204     -0.023888      0.026210
Li	      8.41223      4.29378    -12.36884         0.000329      0.017562     -0.018377
Li	      8.39394     -2.18295     -6.22239        -0.001765      0.008019      0.004598
Li	      6.25372      4.25667     -2.05735         0.006475     -0.005645     -0.002264
Li	      8.30058      6.34305     -6.28484         0.005712     -0.019447      0.003133
Li	     10.45478      8.48627    -10.32448         0.013453      0.006844     -0.006355
Li	     10.44035      2.04907     -4.09399        -0.005410     -0.002578     -0.011599
Li	      6.25081      1.99679     -4.15777        -0.001594     -0.007855      0.008808
Li	      8.32220      4.25858     -8.34015         0.012363     -0.005391      0.021882
Li	     10.48225      6.40238    -12.34065         0.052928      0.034737     -0.007592
Li	     10.50308     -0.18741     -6.20922        -0.011363      0.000274      0.000475
Li	     12.53644      1.96548    -10.36511        -0.003172      0.007630      0.017273
Li	      8.25535      6.34606     -2.12442         0.002464      0.007579      0.010534
Li	     10.37545      8.47203     -6.22134         0.005319     -0.023369      0.009297
Li	     12.53452     10.64872    -10.26004        -0.012585      0.007316     -0.022011
Li	     12.51070      4.13016     -4.10550         0.006378     -0.000673     -0.006447
Li	     16.46905      8.48730    -12.28437        -0.007033      0.009574     -0.007308
Mn	      8.31816      4.14702     -4.18513        -0.005451     -0.007322      0.012071
Mn	     10.40916      6.35971     -8.32439         0.030588     -0.014026     -0.018061
Mn	     12.54598      8.57257    -12.30426        -0.014958     -0.241313      0.100799
Mn	      4.15725      6.40025     -2.05122        -0.001638     -0.004908      0.010163
Mn	     14.61134      4.16071    -10.38931        -0.054324      0.323661      0.011021
Mn	     16.55762      6.21525    -14.41664        -0.009538      0.013310     -0.024825
Mn	     10.37695      8.43569     -2.11332         0.003809     -0.006057      0.048422
Mn	     12.51545     10.57687     -6.23850         0.042069     -0.025645      0.020117
Mn	     10.48918      4.29380    -14.40238         0.033520      0.046622     -0.047026
Mn	      6.19566     10.59157      0.02117        -0.008226     -0.040310      0.000472
Mn	     16.59594      8.40742     -8.31596        -0.009245     -0.003046      0.089056
Mn	     18.67912     10.55633    -12.35864         0.000343      0.056651     -0.029573
Mn	      2.04737      2.11534      0.06524         0.026182      0.008213     -0.019279
Mn	      4.16802      4.17427     -4.21842         0.015971      0.006221      0.030479
Mn	      6.13112      6.43223     -8.40753         0.041376      0.021795      0.025483
Mn	      6.33586     -0.03352     -1.93532         0.019940     -0.028003      0.035406
Mn	      8.40881      2.03107     -6.27092         0.014903      0.000369      0.001713
Mn	     10.65912      4.27163    -10.37102         0.026527      0.058243      0.010190
Mn	      4.08768      6.38804      2.14265         0.006168      0.005563     -0.021533
Mn	      6.18540      8.50018     -2.17229        -0.012355     -0.005752      0.028773
Mn	      8.25978     10.58747     -6.23651        -0.158335      0.069777     -0.017273
Mn	      8.35748      4.28283      0.09410        -0.037528     -0.007780     -0.033753
Mn	     10.41821      6.34559     -4.20040         0.007807     -0.003131      0.025890
Mn	     12.66513      8.46295     -8.27055        -0.031491     -0.167004     -0.074291
Mn	      2.14820      0.04040     -2.02179         0.001898      0.023772     -0.015726
Mn	      8.27191     10.63641     -2.17578        -0.012069     -0.011619      0.022079
Mn	     10.36906     12.70690     -6.24834         0.059151      0.095282     -0.019449
Mn	      6.32827     -2.14009     -4.14426        -0.004172      0.035327      0.002959
Mn	     12.61968      8.45973     -4.25972        -0.002642     -0.025598      0.011290
Mn	     10.60076      2.13942    -12.44744         0.004321     -0.028849     -0.021632
Mn	      4.18646      4.32481      0.07007         0.010395     -0.005965     -0.019508
Mn	      6.23486      6.29321     -4.26816        -0.009508     -0.019420      0.015860
Mn	      8.34903      8.44455     -8.33507        -0.007374      0.027508     -0.043677
Mn	      8.33682      2.10905     -2.10418        -0.046271     -0.026361      0.037554
Mn	     10.53737      4.23090     -6.33039         0.014014     -0.007095      0.007990
Mn	     12.75136      6.42564    -10.35512        -0.070640      0.050473     -0.034827
O	      4.34609     -0.12371     -2.00253        -0.032426     -0.094670     -0.019529
O	      6.41568      1.88707     -6.27914         0.052376      0.020021     -0.004028
O	      8.19528      4.02314    -10.36298        -0.098448     -0.017790     -0.005406
O	      8.46349     -2.41009     -4.21395         0.028703     -0.028699      0.008063
O	     10.62837     -0.29309     -8.22145         0.014156      0.010209     -0.003580
O	     12.49292      1.81479    -12.38722        -0.056184     -0.058296     -0.022749
O	      6.37637      4.14197      0.07662         0.016956      0.013366     -0.022759
O	      8.31136      6.12617     -4.22634         0.003998      0.023117     -0.005136
O	     10.31511      8.31044     -8.27372        -0.047963     -0.022998      0.001316
O	     10.28969      1.88315     -2.02556        -0.059850      0.005510      0.001444
O	     12.64303      3.98094     -6.14718         0.016927     -0.006041     -0.012339
O	     14.77729      6.03467    -10.33026         0.507823     -0.215769      0.045920
O	      6.35446      2.00435     -2.06360         0.065723      0.069557     -0.011677
O	      8.31978      3.99731     -6.18525        -0.014068      0.000245     -0.003087
O	     10.43406      6.19593    -10.27469        -0.138186     -0.019682      0.082465
O	     10.37595     -0.26272     -3.97990        -0.012427     -0.000975      0.027400
O	     12.63466      1.77817     -8.33802        -0.020731     -0.014088     -0.023700
O	     14.83058      3.99221    -12.37293         0.074914     -0.006696      0.032472
O	      8.26500      6.27320      0.19158        -0.025297      0.014835      0.070257
O	     10.32921      8.30203     -4.10620        -0.017984      0.001175     -0.021097
O	     12.65472     10.46812     -8.20225         0.028711      0.021928      0.025050
O	     12.45531      3.99938     -1.93420        -0.022644     -0.017123      0.006917
O	     14.55527      6.06633     -6.04861        -0.018088     -0.017538      0.024017
O	     16.82548      8.23240    -10.31270         0.013346     -0.141432     -0.013529
O	      4.24989      2.21299     -4.28501         0.022119      0.009258     -0.038377
O	      6.15409      4.37463     -8.43881        -0.026240     -0.003534     -0.057896
O	      8.42987      6.54768    -12.47494         0.002629      0.002686      0.007991
O	      8.49216      0.08365     -6.38272         0.018956      0.026145     -0.025608
O	     10.57313      2.37292    -10.44933         0.030007      0.013001     -0.023081
O	     12.41580      4.41417    -14.62368        -0.081292     -0.034426     -0.034080
O	      6.17333      6.49637     -2.09104        -0.000389     -0.002843      0.006421
O	      8.25820      8.55548     -6.32998         0.057429      0.023274     -0.017961
O	     10.46868     10.83426    -10.36943         0.022134      0.024735      0.007442
O	     10.49994      4.39202     -4.30614         0.016093      0.008003     -0.027576
O	     12.37209      6.55017     -8.35072        -0.097918      0.051385      0.081812
O	     14.55454      8.72335    -12.59340         0.049095      0.017196     -0.065020
O	      4.18861      2.35356      0.04396        -0.068535      0.027370      0.014976
O	      6.15375      4.34303     -4.20344        -0.018163      0.021285     -0.007104
O	      8.43344      6.47993     -8.32051         0.050575      0.018184      0.005925
O	      8.24029      0.21063     -2.14224         0.023144      0.059604     -0.024728
O	     10.50386      2.27314     -6.26772        -0.010990      0.007744     -0.003650
O	     12.72105      4.46629    -10.41318         0.061356     -0.019906     -0.004207
O	      6.36039      6.60123      2.16853         0.029381     -0.020804      0.002353
O	      8.17054      8.63746     -2.13639        -0.009033      0.010619     -0.002692
O	     10.28677     10.74984     -6.26019        -0.199114     -0.012233      0.008541
O	     10.29072      4.42596     -0.07938        -0.008760     -0.018059     -0.002081
O	     12.42602      6.51288     -4.16995        -0.037357      0.033538     -0.007300
O	     14.71400      8.75158     -8.30172         0.074006      0.051762     -0.015795
O	      2.13171      2.01321     -2.12604        -0.003486     -0.006878     -0.021800
O	      4.28475      4.05792     -6.37562        -0.014912      0.019994     -0.075683
O	      6.37407      6.10502    -10.38708         0.002402     -0.108872      0.025950
O	      6.31931     -0.17337     -4.29523        -0.009055      0.013414     -0.062824
O	      8.44818      1.89587     -8.43524        -0.015548      0.009302     -0.049316
O	     10.43251      4.12635    -12.41166        -0.009731     -0.054580     -0.032346
O	      4.12009      6.29733      0.14495        -0.005941      0.002132      0.039691
O	      6.33317      8.18663     -4.33054         0.019559     -0.028268     -0.097558
O	      8.40892     10.37548     -8.36786         0.010254     -0.051679     -0.022877
O	      8.34321      4.08833     -2.23244        -0.002831     -0.024715     -0.029146
O	     10.44710      6.18484     -6.37416        -0.014699      0.002828     -0.089933
O	     12.49231      8.39795    -10.22035         0.028992     -0.097421      0.002795
O	      4.15433      4.44554     -1.88920        -0.007394      0.011475      0.013566
O	      6.19911      6.49352     -6.39666        -0.010412      0.054721     -0.020980
O	      8.42180      8.57790    -10.25588         0.019450     -0.015546      0.085519
O	      8.38010      2.18415     -4.08682        -0.005279      0.015832      0.064598
O	     10.34227      4.40893     -8.34120        -0.009574      0.049376     -0.022766
O	     12.46227      6.69279    -12.26209        -0.136678      0.206878      0.008067
O	      6.20521      8.62213      0.16595         0.002851     -0.004388      0.035184
O	      8.36880     10.77709     -4.10401         0.025061      0.059031      0.026278
O	     10.31590     12.89686     -8.22805         0.008016     -0.015520      0.073270
O	     10.36551      6.46658     -2.01796         0.005010     -0.004992      0.011588
O	     12.39132      8.60694     -6.25165         0.001202      0.029201     -0.012396
O	     14.53106     10.91782    -10.21171        -0.005087      0.039330      0.094984
