# total energy = -599.01825105 eV
 
CRYSTAL
PRIMVEC
4.287206 8.686539 4.269961 
8.687212 -4.394948 -4.291021 
4.348674 4.265777 -8.450850 
PRIMCOORD
92 1
Li	      4.43441      1.82520     -2.17991         0.147504      0.033618      0.049044
Li	      6.69632      4.25993     -6.45802         0.032027     -0.085816      0.122114
Li	      8.83387     -0.36993     -4.34609        -0.045120      0.140332     -0.062709
Li	     11.05386      1.85216     -8.87119        -0.004562     -0.015310      0.050352
Li	      6.53114      6.59765     -0.00040         0.005094     -0.037081      0.047936
Li	      8.75276      8.67150     -4.27245         0.027819     -0.188995     -0.070691
Li	     11.09227      4.46736     -2.14817        -0.030375      0.160064     -0.120426
Li	     13.10454      6.48993     -6.45296         0.010809     -0.042985     -0.000971
Li	      4.35529      0.01270     -4.29144         0.019553      0.074834      0.007735
Li	      6.54631      2.16509     -8.48023         0.026873     -0.121166     -0.017280
Li	      8.76662     -2.24469     -6.41580        -0.045321      0.089840     -0.156662
Li	     10.96845     -0.12694    -10.68857        -0.092737     -0.092214     -0.090731
Li	      6.65210      4.13697     -2.21523         0.018643     -0.098226     -0.008431
Li	      8.82918      6.56664     -6.39670        -0.035400     -0.073044      0.092878
Li	     11.15334      2.39938     -4.07171        -0.181425      0.197151      0.101772
Li	     13.08113      4.08048     -8.61303        -0.045693     -0.022755      0.070876
Li	      6.39605      2.08765     -4.26889        -0.111167     -0.017621     -0.037358
Li	      8.83869      4.33369     -8.53035        -0.035652      0.010831      0.261980
Li	     10.71187     -0.43498     -6.43162        -0.225424      0.067067      0.050433
Li	     13.14682      2.08492    -10.75091        -0.043009     -0.008579      0.241829
Li	      8.65499      6.87144     -2.12256        -0.122393     -0.038348     -0.095209
Li	     10.85569      8.65499     -6.26805        -0.062584      0.048266     -0.021812
Li	     13.09170      4.35797     -4.30935        -0.085146      0.026476      0.042213
Li	     15.22962      6.54985     -8.55575        -0.274933     -0.030723      0.118448
Mn	      8.76534      4.35344     -4.31909         0.005093      0.206765     -0.290597
Mn	      6.56024      2.18947     -0.04783         0.160783      0.589484     -0.928800
Mn	      4.43744      6.64839     -2.10860         0.449635     -0.086350     -0.213533
Mn	      2.18776      4.35651      2.07205         0.193455     -0.886621      0.537357
Mn	      6.54869     -0.07216     -6.38695         0.382953      0.895846      0.360658
Mn	      4.43698     -2.09670     -2.17185        -0.712748     -1.685592      0.519273
Mn	      2.29569      2.17609     -4.23857        -0.520197     -0.728419      0.142880
Mn	      0.02869      0.01820     -0.04467         0.138217     -0.016017      1.079864
Mn	      2.25013      2.10747      0.00578         0.999309     -0.001002     -0.195096
Mn	      4.41712      4.33335     -4.37936         0.674538     -0.166763     -0.234727
Mn	      6.62370     -0.08983     -2.17713         0.472491      0.674426     -0.133901
Mn	      8.71026      2.09672     -6.49557        -0.211689     -0.015916     -0.130731
Mn	      4.33026      6.56445      2.21118         0.937243     -0.306205     -0.583315
Mn	      6.47686      8.82174     -2.12761         0.349365     -0.580308     -0.234232
Mn	      8.67912      4.40893      0.08160         0.020926      0.130926     -0.184438
Mn	     10.88386      6.56833     -4.25326        -0.263279     -0.245907     -0.048981
Mn	      2.24415      0.05995     -2.11103        -0.119911     -0.893807     -1.216790
Mn	      4.39858      2.13477     -6.40198         0.652136      0.968571      0.349131
Mn	      6.60855     -2.14762     -4.28338        -0.286469     -0.646019     -1.431486
Mn	      8.80064     -0.08451     -8.56371         0.107343      0.996786      0.295368
Mn	      4.41935      4.36680      0.08099         0.314176      0.004676     -0.332346
Mn	      6.63997      6.54745     -4.25781         0.034172     -0.063071      0.047708
Mn	      8.83242      2.04402     -2.17482        -0.343282     -0.051723     -0.054836
Mn	     11.02694      4.45186     -6.45424        -0.271113      0.115607      0.179517
O	      4.56159     -0.21051     -2.17757         0.438026      0.936692     -0.035108
O	      6.61587      1.94418     -6.37015         0.111712     -0.222614      0.101767
O	      8.94515     -2.45927     -4.34708        -0.157200      0.771088     -0.005908
O	     11.03028     -0.30053     -8.49079        -0.210270      0.468946      0.241941
O	      6.64091      4.23331     -0.21739         0.139256     -0.210537     -0.048244
O	      8.88631      6.51566     -4.22342         0.192441     -0.072590      0.023186
O	     10.98135      1.92767     -2.18384        -0.222425      0.362943     -0.152495
O	     13.18211      4.34693     -6.45236        -0.240975      0.196196      0.099927
O	      6.61853      2.03560     -2.12613         0.023116      0.000184      0.127647
O	      8.87977      4.10416     -6.42864         0.082248     -0.255851      0.160428
O	     10.93746     -0.30727     -4.23540        -0.460167      0.258523      0.085053
O	     13.02160      1.96951     -8.45166        -0.262535      0.201012      0.577595
O	      8.59150      6.40657      0.14634         0.009002     -0.100513     -0.361365
O	     10.85665      8.60247     -4.07706        -0.148692     -0.604568     -0.076569
O	     13.02318      4.15514     -2.00542        -0.629543      0.073622     -0.246516
O	     15.20787      6.41193     -6.27143        -0.519106     -0.238745      0.178558
O	      4.43590      2.19106     -4.37155         0.264053      0.121987     -0.005292
O	      6.68352      4.40312     -8.66837         0.100816      0.145297      0.948405
O	      8.84657      0.03595     -6.51546         0.094896      0.218492     -0.029336
O	     11.03480      2.16723    -10.86478         0.012270      0.083723      1.144864
O	      6.59471      6.74606     -2.24520        -0.053454      0.312025     -0.184321
O	      8.80284      8.89818     -6.33735        -0.104452     -0.076925      0.464962
O	     10.91087      4.47169     -4.27286        -0.133024      0.261069     -0.014808
O	     13.19606      6.78709     -8.63009        -0.243280      0.157367      0.298371
O	      4.26795      2.25879     -0.11183        -0.030087      0.040922     -0.075785
O	      6.65807      4.51052     -4.15376         0.156333      0.227349      0.055152
O	      8.63839     -0.06592     -2.24560        -0.085791      0.257589     -0.228748
O	      6.38895      6.74329      2.20314        -0.147174      0.214921     -0.256439
O	      8.54899      8.89377     -2.08960        -0.320357     -0.571183     -0.232278
O	     10.71394      4.53683     -0.04578        -0.081275      0.279817     -0.306878
O	     12.91348      6.67586     -4.22655        -0.367954     -0.278889     -0.240268
O	      2.23241      1.99786     -2.24360         0.281996      0.590156     -0.012072
O	      4.42496      4.19262     -6.50788         0.135710     -0.235516     -0.018954
O	      6.62022     -0.20979     -4.40155         0.070027      0.367460      0.001463
O	      8.92645      1.94256     -8.65991         0.201918     -0.082076      0.266983
O	      4.27218      6.47367     -0.10691         0.249117     -0.114835     -0.473764
O	      6.50343      8.55536     -4.38358         0.133116     -0.297001     -0.219856
O	     10.90641      6.59095     -6.56675         0.007262     -0.279245      0.306790
O	      6.60787      6.59848     -6.26612         0.016151      0.215168      0.295758
O	     11.00579      4.50358     -8.54247        -0.068720     -0.088939      0.459350
O	      6.45193      8.87331      0.16079         0.174159     -0.051388     -0.169519
O	      8.64705     11.05544     -4.08431        -0.188736     -0.753031     -0.258459
O	     10.84522      6.64594     -1.99296        -0.094207     -0.293697     -0.018686
O	     13.05144      8.84288     -6.26273        -0.134727     -0.119390     -0.039806
