# total energy = -597.47628188 eV
 
CRYSTAL
PRIMVEC
4.308429 8.729542 4.291099 
8.730218 -4.416705 -4.312264 
4.370202 4.286895 -8.492686 
PRIMCOORD
92 1
Li	      4.47842      1.84331     -2.20154         0.215587      0.046527      0.071799
Li	      6.76278      4.30222     -6.52211         0.039403     -0.123760      0.181290
Li	      8.92155     -0.37360     -4.38923        -0.063152      0.203253     -0.087655
Li	     11.16358      1.87054     -8.95924        -0.021945     -0.003724      0.062736
Li	      6.59597      6.66314     -0.00041         0.007773     -0.050316      0.074409
Li	      8.83963      8.75758     -4.31486         0.043315     -0.266970     -0.107089
Li	     11.20238      4.51170     -2.16950        -0.034646      0.235491     -0.165795
Li	     13.23462      6.55435     -6.51701         0.013455     -0.052773     -0.004015
Li	      4.39851      0.01283     -4.33402         0.025411      0.114277      0.021860
Li	      6.63262      2.22980     -8.54316         0.025324     -0.184847     -0.026115
Li	      8.87496     -2.22375     -6.45824        -0.082619      0.115984     -0.229643
Li	     11.09864     -0.08499    -10.77341        -0.147000     -0.134611     -0.130320
Li	      6.71813      4.17803     -2.23723         0.002682     -0.123866      0.006445
Li	      8.91681      6.63182     -6.46019        -0.058942     -0.101196      0.130516
Li	     11.26404      2.42320     -4.11212        -0.267261      0.283080      0.158620
Li	     13.21096      4.12098     -8.69852        -0.072492     -0.050123      0.094014
Li	      6.45954      2.10837     -4.31126        -0.170818     -0.021208     -0.054356
Li	      8.92641      4.37670     -8.61501        -0.050315      0.016385      0.362005
Li	     10.81819     -0.43930     -6.49546        -0.321646      0.086902      0.072954
Li	     13.27731      2.10561    -10.85763        -0.079218     -0.014302      0.369986
Li	      8.74090      6.93965     -2.14363        -0.177046     -0.056457     -0.131412
Li	     10.96343      8.74090     -6.33027        -0.099316      0.090690     -0.028529
Li	     13.22164      4.40124     -4.35213        -0.126597      0.031173      0.073178
Li	     15.38078      6.61486     -8.64068        -0.415727     -0.041710      0.205851
Mn	      8.85234      4.39665     -4.36196         0.003105      0.363042     -0.460759
Mn	      6.62535      2.21121     -0.04830         0.202248      0.846860     -1.413416
Mn	      4.48148      6.71438     -2.12953         0.703837     -0.095797     -0.266375
Mn	      2.23111      4.42097      2.05057         0.250829     -1.338271      0.756106
Mn	      6.61369     -0.07288     -6.45034         0.553835      1.325446      0.516459
Mn	      4.52398     -2.05307     -2.21421        -1.029256     -2.696045      0.756479
Mn	      2.38303      2.21905     -4.28075        -0.818226     -1.137629      0.211249
Mn	      0.05061      0.03961     -0.08715         0.171579     -0.009908      1.591552
Mn	      2.27246      2.12839      0.00584         1.490153     -0.002093     -0.306759
Mn	      4.46097      4.37636     -4.42283         0.985739     -0.209229     -0.369561
Mn	      6.68944     -0.09072     -2.19873         0.671132      0.980330     -0.196779
Mn	      8.79672      2.11753     -6.56004        -0.348921     -0.051433     -0.256085
Mn	      4.37325      6.62961      2.23313         1.430494     -0.448276     -0.871530
Mn	      6.54115      8.90930     -2.14873         0.545174     -0.825592     -0.327393
Mn	      8.76527      4.45268      0.08240         0.062551      0.198695     -0.247288
Mn	     10.99189      6.63352     -4.29548        -0.363044     -0.322896     -0.060370
Mn	      2.28775      0.10377     -2.11075        -0.156305     -1.365033     -1.989694
Mn	      4.44224      2.15595     -6.46552         0.973982      1.426007      0.477101
Mn	      6.69548     -2.12572     -4.30466        -0.429028     -0.999480     -2.305347
Mn	      8.88799     -0.08535     -8.64871         0.148383      1.512381      0.419511
Mn	      4.46321      4.41015      0.08179         0.461140     -0.006055     -0.466080
Mn	      6.70587      6.61244     -4.30007         0.047819     -0.085249      0.070418
Mn	      8.92009      2.06432     -2.19641        -0.516683     -0.138386     -0.016083
Mn	     11.13639      4.49604     -6.51830        -0.375766      0.186767      0.243144
O	      4.60686     -0.21260     -2.19918         0.557272      1.627704     -0.046422
O	      6.68153      1.96347     -6.43337         0.193036     -0.281353      0.164694
O	      9.03393     -2.48368     -4.39024        -0.255386      1.189872     -0.007694
O	     11.13976     -0.30352     -8.57507        -0.295496      0.748460      0.363027
O	      6.70682      4.27533     -0.21954         0.177204     -0.306080     -0.086252
O	      8.97451      6.58033     -4.26534         0.240515     -0.141216      0.028128
O	     11.09035      1.94681     -2.20552        -0.407299      0.594798     -0.250190
O	     13.31296      4.39007     -6.51640        -0.456309      0.259607      0.155456
O	      6.68422      2.05581     -2.14724         0.070610      0.071015      0.155290
O	      8.96790      4.14489     -6.49244         0.146169     -0.388904      0.273690
O	     11.04602     -0.31032     -4.27745        -0.656949      0.413192      0.114094
O	     13.15084      1.98906     -8.53554        -0.399288      0.262101      0.807928
O	      8.67676      6.47016      0.14779        -0.011677     -0.118829     -0.581826
O	     10.96441      8.68786     -4.11752        -0.199231     -0.877380     -0.095392
O	     13.15243      4.19639     -2.02532        -0.935400      0.112249     -0.404779
O	     15.35881      6.47557     -6.33368        -0.809469     -0.348315      0.225943
O	      4.47993      2.21280     -4.41494         0.412443      0.214804      0.059712
O	      6.74986      4.44683     -8.75441         0.165039      0.221294      1.626411
O	      8.93437      0.03631     -6.58013         0.160033      0.351562     -0.020181
O	     11.14433      2.18874    -10.97263         0.035960      0.092493      1.908200
O	      6.66016      6.81303     -2.26749        -0.086462      0.419851     -0.264188
O	      8.89021      8.98651     -6.40024        -0.151106     -0.132805      0.670612
O	     11.01916      4.51607     -4.31527        -0.232213      0.312237     -0.052678
O	     13.32704      6.85446     -8.71574        -0.324768      0.226293      0.400914
O	      4.31031      2.28121     -0.11294        -0.008656      0.068315     -0.108595
O	      6.72416      4.55529     -4.19500         0.249875      0.277634      0.081652
O	      8.72413     -0.06658     -2.26789        -0.011812      0.427934     -0.348578
O	      6.45236      6.81022      2.22501        -0.210985      0.281081     -0.378202
O	      8.63385      8.98205     -2.11034        -0.435232     -0.866451     -0.329718
O	     10.82028      4.58186     -0.04623        -0.104945      0.385805     -0.469349
O	     13.04165      6.74212     -4.26851        -0.510188     -0.477382     -0.350080
O	      2.25457      2.01768     -2.26587         0.420015      0.925992      0.033885
O	      4.46889      4.23424     -6.57248         0.215123     -0.345984      0.034095
O	      6.68593     -0.21187     -4.44523         0.101970      0.607448      0.029186
O	      9.01506      1.96185     -8.74587         0.309125     -0.080166      0.434254
O	      4.31459      6.53792     -0.10797         0.392863     -0.195983     -0.740654
O	      6.56797      8.64028     -4.42709         0.208446     -0.431297     -0.311816
O	     11.01466      6.65637     -6.63194         0.015116     -0.441415      0.496344
O	      6.67346      6.66398     -6.32831         0.015404      0.282211      0.403178
O	     11.11502      4.54828     -8.62726        -0.107886     -0.132133      0.750056
O	      6.51597      8.96138      0.16239         0.269600     -0.058217     -0.285493
O	      8.73287     11.16517     -4.12484        -0.268473     -1.143702     -0.391111
O	     10.95285      6.71191     -2.01274        -0.144475     -0.490498     -0.073110
O	     13.18099      8.93065     -6.32489        -0.181092     -0.221901     -0.029675
