# total energy = -580.10371722 eV
 
CRYSTAL
PRIMVEC
4.414548 8.944555 4.396792 
8.945248 -4.525491 -4.418477 
4.477843 4.392483 -8.701865 
PRIMCOORD
92 1
Li	      4.70176      1.93524     -2.31134         0.465954      0.154039      0.144570
Li	      7.10003      4.51675     -6.84737         0.006441     -0.215618      0.467878
Li	      9.36646     -0.39223     -4.60812        -0.143272      0.420212     -0.137067
Li	     11.72028      1.96383     -9.40602        -0.126040      0.106579      0.117428
Li	      6.92489      6.99542     -0.00042         0.014962     -0.083623      0.170185
Li	      9.28045      9.19430     -4.53003         0.138549     -0.617329     -0.278991
Li	     11.76100      4.73669     -2.27769        -0.087695      0.602401     -0.398780
Li	     13.89458      6.88120     -6.84199        -0.041877     -0.065961     -0.037309
Li	      4.61786      0.01347     -4.55015        -0.014127      0.259100      0.062697
Li	      7.07210      2.56131     -8.86089        -0.054356     -0.593558     -0.076379
Li	      9.42628     -2.11433     -6.67201        -0.467827      0.186642     -0.524363
Li	     11.76084      0.13108    -11.20236        -0.611476     -0.345950     -0.323781
Li	      7.05314      4.38638     -2.34879        -0.119127     -0.190731      0.110344
Li	      9.36148      6.96253     -6.78234        -0.215307     -0.195334      0.336406
Li	     11.82575      2.54403     -4.31719        -0.988939      0.671425      0.488234
Li	     13.86976      4.32648     -9.13230        -0.247333     -0.161097      0.229966
Li	      6.78166      2.21351     -4.52625        -0.498659     -0.074060     -0.060104
Li	      9.37155      4.59495     -9.04463        -0.080347      0.040247      0.795369
Li	     11.35767     -0.46121     -6.81937        -0.712283      0.107280      0.270015
Li	     13.93942      2.21061    -11.39907        -0.411815     -0.006568      1.168927
Li	      9.17679      7.28571     -2.25053        -0.440937     -0.176506     -0.304595
Li	     11.51016      9.17678     -6.64594        -0.294424      0.268655      0.002529
Li	     13.88097      4.62072     -4.56916        -0.310071      0.052058      0.281951
Li	     16.14779      6.94473     -9.07157        -1.248099     -0.137540      0.777244
Mn	      9.29379      4.61590     -4.57948        -0.008059      1.668495     -1.207622
Mn	      6.95574      2.32147     -0.05071         0.117114      1.789780     -3.815004
Mn	      4.70497      7.04921     -2.23573         1.906142     -0.035577     -0.141332
Mn	      2.45266      4.74963      1.93850         0.282732     -3.811820      1.473825
Mn	      6.94350     -0.07651     -6.77201         1.156975      3.219172      0.947622
Mn	      4.96861     -1.82696     -2.43067        -1.588470    -10.721028      1.496429
Mn	      2.83092      2.43855     -4.49475        -2.614355     -3.766362      0.766825
Mn	      0.16342      0.14978     -0.30583        -0.166337      0.282511      3.860842
Mn	      2.38579      2.23452      0.00612         3.954497      0.190325     -0.766095
Mn	      4.68343      4.59461     -4.64338         2.545774     -0.008011     -0.940724
Mn	      7.02303     -0.09525     -2.30839         1.606715      2.274135     -0.416753
Mn	      9.23538      2.22313     -6.88717        -0.909439     -0.371050     -1.234302
Mn	      4.59132      6.96021      2.34449         3.827118     -1.253881     -2.342070
Mn	      6.86734      9.35358     -2.25589         1.788312     -1.983218     -0.622832
Mn	      9.20237      4.67473      0.08652         0.276154      0.392055     -0.708727
Mn	     11.54003      6.96432     -4.50969        -0.681732     -0.575653     -0.149388
Mn	      2.51057      0.32925     -2.10770        -0.429946     -3.441779     -8.882962
Mn	      4.66376      2.26346     -6.78794         2.451319      3.317734      0.599919
Mn	      7.13810     -2.01142     -4.41103        -1.085250     -2.754238    -10.221300
Mn	      9.33122     -0.08960     -9.08000         0.136675      4.311694      0.763877
Mn	      4.68578      4.63006      0.08587         1.061595     -0.129863     -1.146178
Mn	      7.04028      6.94218     -4.51449         0.223517     -0.104998      0.141722
Mn	      9.36491      2.16725     -2.30593        -1.321699     -0.727960      0.561145
Mn	     11.69173      4.72025     -6.84334        -0.660305      0.508491      0.466938
O	      4.83660     -0.22320     -2.30885        -0.044575      8.491811      0.336352
O	      7.01473      2.06139     -6.75419         0.107263     -0.138335      0.501591
O	      9.48443     -2.60754     -4.60916        -0.898623      3.627820      0.001181
O	     11.69527     -0.31865     -9.00269        -0.771080      2.945385      0.738168
O	      7.04128      4.48853     -0.23049         0.286899     -0.614400     -0.262882
O	      9.42205      6.90848     -4.47804         0.002695     -0.723646      0.067841
O	     11.64340      2.04389     -2.31551        -1.481242      2.350340     -0.762416
O	     13.97684      4.60900     -6.84136        -2.075653      0.414363      0.359676
O	      7.01755      2.15833     -2.25432         0.359618      0.602635     -0.081116
O	      9.41511      4.35159     -6.81621         0.368922     -1.058133      0.901606
O	      2.65162      4.19969     -0.07227        -1.493843      1.360914      0.038179
O	     13.80664      2.08825     -8.96119        -1.093236      0.216507      1.387018
O	      9.10946      6.79281      0.15516        -0.245581      0.031401     -1.866112
O	     11.51118      9.12109     -4.32286        -0.303033     -1.731312     -0.059371
O	      4.86307      8.93114      2.29215        -2.068756      0.329033     -1.556181
O	     16.12472      6.79850     -6.64953        -1.899560     -0.743954     -0.148370
O	      4.70333      2.32315     -4.63511         1.486256      0.728807      0.940091
O	      2.60862      0.27609     -0.48911         0.859315      0.318068      8.273963
O	      9.37990      0.03812     -6.90827         0.476097      1.107318      0.242082
O	      7.22222     -2.09460     -2.81794         0.399253     -0.176161      9.513275
O	      6.99228      7.15278     -2.38056        -0.221990      0.702723     -0.341409
O	      4.85570      5.04216      1.98246        -0.219082     -0.332232      1.606225
O	     11.56867      4.74127     -4.53047        -0.905095     -0.108095     -0.207132
O	      9.51379      2.80379     -0.44852        -0.536030      0.499366      0.686575
O	      4.52525      2.39496     -0.11857         0.351531      0.014256     -0.277720
O	      7.05947      4.78245     -4.40419         0.792736      0.004181      0.230983
O	      9.15918     -0.06990     -2.38098         0.625237      1.301750     -1.058862
O	      6.77413      7.14983      2.33596        -0.454939      0.307508     -0.994603
O	      9.06440      9.42997     -2.21558        -0.721530     -2.800811     -0.471619
O	     11.35986      4.81035     -0.04855        -0.117989      0.577228     -1.366033
O	     13.69202      7.07833     -4.48137        -0.496061     -2.031345     -0.811607
O	      2.36700      2.11830     -2.37886         1.086413      2.773171      0.590597
O	      4.69174      4.44539     -6.90024         0.878516     -0.464064      0.550715
O	      7.01935     -0.22243     -4.66691         0.108252      2.533641      0.166301
O	      9.46461      2.05968     -9.18200         0.768280      0.202027      1.374061
O	      4.52974      6.86395     -0.11335         1.541432     -0.509208     -1.906337
O	      6.89550      9.07116     -4.64785         0.577240     -0.834928     -0.589310
O	     11.56394      6.98831     -6.96265         0.140203     -1.120050      1.809255
O	      7.00625      6.99630     -6.64389        -0.050521      0.227935      0.606852
O	     11.66931      4.77509     -9.05749        -0.302726     -0.255908      2.311973
O	      6.84090      9.40826      0.17049         0.904467     -0.261688     -0.999066
O	      9.16836     11.72195     -4.33054        -0.504562     -3.125896     -1.009125
O	     11.49905      7.04661     -2.11312        -0.286463     -1.802156     -0.499506
O	     13.83829      9.37600     -6.64030        -0.309397     -1.109586      0.267982
