# total energy = -600.21240061 eV
 
CRYSTAL
PRIMVEC
4.244758 8.600534 4.227684 
8.601200 -4.351434 -4.248536 
4.305618 4.223541 -8.367178 
PRIMCOORD
92 1
Li	      4.34703      1.78924     -2.13696         0.002405      0.000227      0.003978
Li	      6.56438      4.17599     -6.33077         0.003413      0.004333     -0.004591
Li	      8.65982     -0.36263     -4.26046        -0.007822     -0.002868      0.001317
Li	     10.83605      1.81567     -8.69640         0.020535     -0.023750      0.012309
Li	      6.40245      6.46766     -0.00040         0.006344     -0.003640     -0.002817
Li	      8.58030      8.50064     -4.18827         0.008650     -0.015613      0.002278
Li	     10.87371      4.37933     -2.10585        -0.012299      0.017229     -0.017455
Li	     12.84633      6.36205     -6.32581         0.005369     -0.014385     -0.002096
Li	      4.26947      0.01245     -4.20688        -0.004654     -0.008409     -0.006372
Li	     10.62006     10.63782     -4.12731         0.014440      0.000761     -0.012817
Li	     12.79662      6.31492     -2.10357         0.011812      0.021697     -0.000270
Li	     14.95506      8.39094     -6.29214        -0.004393      0.002383     -0.020447
Li	      6.52102      4.05545     -2.17158         0.018709     -0.042266     -0.010493
Li	      8.65521      6.43726     -6.27065        -0.006883      0.007261      0.014408
Li	     10.93358      2.35211     -3.99148        -0.004431      0.017213     -0.003065
Li	     12.82338      4.00007     -8.44332        -0.000889      0.040983      0.014003
Li	      6.27003      2.04651     -4.18477        -0.001771     -0.028288      0.000848
Li	      8.66452      4.24829     -8.36227        -0.005460      0.000269      0.030665
Li	     10.50080     -0.42642     -6.30489        -0.006701      0.005773      0.023404
Li	     12.88778      2.04383    -10.53909         0.004046      0.012310      0.013699
Li	      8.48446      6.73605     -2.08074        -0.014822     -0.003583     -0.005507
Li	     10.64179      8.48445     -6.14455         0.004910     -0.021225     -0.007227
Li	     12.83374      4.27211     -4.22444         0.005626      0.022045     -0.005550
Li	     14.92953      6.42079     -8.38717        -0.004217     -0.013047     -0.020414
Mn	      8.59263      4.26766     -4.23399        -0.001198     -0.033272      0.048602
Mn	      6.43097      2.14633     -0.04689        -0.007912      0.012008      0.018061
Mn	      4.35000      6.51739     -2.06705        -0.061988     -0.044573      0.011576
Mn	      6.40764      8.45239     -6.25311         0.014101     -0.007532      0.021815
Mn	      6.41966     -0.07074     -6.26110         0.003472     -0.017691      0.024082
Mn	     12.81527     10.64172     -6.22757        -0.002226     -0.015276      0.042836
Mn	     14.96923      6.34025     -4.17570         0.001847     -0.005250      0.027377
Mn	      4.29111      4.19957     -8.32812         0.008936      0.020333      0.009243
Mn	      2.20579      2.06594      0.00567         0.019710      0.002137      0.019337
Mn	      4.33009      4.24798     -4.29307         0.050661     -0.015859      0.062016
Mn	      6.49319     -0.08806     -2.13423         0.026071      0.008132      0.013993
Mn	      8.53863      2.05541     -6.36758         0.073170      0.008908      0.050889
Mn	      4.24495      6.43511      2.16761        -0.032789     -0.026714     -0.002677
Mn	      6.34924      8.64791     -2.08569        -0.017523     -0.018902     -0.022210
Mn	      8.50811      4.32205      0.07999        -0.036633     -0.027136     -0.048241
Mn	     10.66941      6.43890     -4.16946        -0.024312     -0.035945     -0.024462
Mn	      6.40265      8.57415      2.11639        -0.014930      0.033554      0.011298
Mn	      4.31191      2.09270     -6.27583         0.019200      0.034773      0.012632
Mn	     10.68107      6.41007     -0.01317         0.019216      0.021395     -0.006846
Mn	      8.62723     -0.08285     -8.39497         0.010088      0.012376     -0.000720
Mn	      4.33227      4.28076      0.07939        -0.002988      0.015656     -0.074970
Mn	      6.50913      6.41843     -4.17391        -0.005036      0.007872     -0.013153
Mn	      8.65839      2.00375     -2.13197        -0.000004      0.047134     -0.056061
Mn	     10.80967      4.36414     -6.32706        -0.008659     -0.041548      0.007389
O	      4.47171     -0.20636     -2.13467         0.007947     -0.023974      0.003909
O	      6.48552      1.90587     -6.24463        -0.065406      0.001600     -0.007116
O	      8.76889     -2.41082     -4.26143         0.003681      0.006459     -0.008732
O	     10.81294     -0.29461     -8.32349        -0.062085     -0.017912     -0.012580
O	      6.51006      4.14990     -0.21310         0.052037      0.021585      0.014164
O	      8.71122      6.38728     -4.14020         0.033059      0.046688      0.007523
O	     10.76498      1.88970     -2.14081         0.061918      0.010664      0.024685
O	     12.92237      4.26127     -6.32522         0.069264      0.040565      0.004264
O	      6.48812      1.99550     -2.08424        -0.042276      0.013556     -0.004439
O	      8.70481      4.02329     -6.30198        -0.046589      0.025443     -0.045367
O	     10.72195     -0.30122     -4.15195        -0.062139     -0.015920      0.013077
O	     12.76503      1.93070     -8.28513        -0.010104      0.035794     -0.020298
O	      8.42221      6.28034      0.14346         0.015305     -0.013034     -0.002293
O	     10.64274      8.43297     -3.99673        -0.014334     -0.000448     -0.028664
O	     12.76656      4.07327     -1.96590         0.009981     -0.006607      0.002570
O	     14.90821      6.28560     -6.14786        -0.011423      0.003488     -0.002676
O	      4.34850      2.14788     -4.28543         0.000709     -0.048559     -0.021858
O	      6.55183      4.31636     -8.49758         0.012692     -0.006645     -0.003555
O	      8.67225      0.03525     -6.38708        -0.017469     -0.027431     -0.010049
O	     10.81737      2.12453    -10.65071         0.005702     -0.037570     -0.003223
O	      6.46476      6.61314     -2.20096         0.029502      0.008155      0.031140
O	      8.62940      8.72286     -6.21248         0.021569      0.034125      0.044151
O	     10.69588      4.38358     -4.18866         0.010999      0.039733      0.067953
O	     12.93605      6.65336     -8.46004        -0.000404      0.035632      0.062981
O	      4.18385      2.21428     -0.10963        -0.021067     -0.048214     -0.003901
O	      6.52688      4.42165     -4.07192        -0.000358     -0.001614     -0.010189
O	      8.46817     -0.06462     -2.20135        -0.025686     -0.044944      0.004173
O	      6.26306      6.61042      2.15973        -0.020230     -0.009640     -0.019302
O	      8.38054      8.71853     -2.04843         0.008455      0.008485     -0.012179
O	     10.50283      4.44744     -0.04488        -0.004147     -0.012184     -0.025299
O	     12.65904      6.54432     -4.14328         0.024443      0.005216     -0.016877
O	      2.18843      1.95849     -2.19940        -0.018035      0.007571     -0.020945
O	      4.33778      4.11001     -6.37965         0.000612     -0.004727     -0.054097
O	      6.48977     -0.20565     -4.31482        -0.003177     -0.006328     -0.040931
O	      8.75057      1.90429     -8.48929        -0.020941     -0.019508     -0.035216
O	      4.18801      6.34611     -0.10480         0.005350      0.067214      0.054701
O	      6.37528      8.38679     -4.29720        -0.017459      0.027956      0.001409
O	     10.69150      6.46108     -6.43736        -0.000929      0.043541      0.010732
O	      6.47767      6.46847     -6.14265         0.018470     -0.013845      0.015823
O	     10.78894      4.41484     -8.37415         0.013798      0.004871     -0.061905
O	      6.32480      8.69847      0.15763         0.014950     -0.015607     -0.010819
O	      8.47667     10.83761     -4.00383        -0.001499     -0.025682     -0.019512
O	     10.63151      6.51499     -1.95369         0.009225      0.001515      0.015225
O	     12.79428      8.66864     -6.13933        -0.026101      0.000541     -0.006053
