# total energy = -608.56528681 eV
 
CRYSTAL
PRIMVEC
4.228215 8.504160 4.229571 
8.604173 -4.325918 -4.240926 
4.287292 4.175946 -8.369657 
PRIMCOORD
93 1
Li	      4.45980      2.09185     -2.13037        -0.039563     -0.001076     -0.012380
Li	      6.44025      4.12617     -6.30235        -0.004171      0.010384      0.004083
Li	      8.80822     -0.02350     -4.22503        -0.051479      0.023361     -0.011488
Li	     10.74862      1.96560     -8.44251        -0.009863      0.006350     -0.003139
Li	      6.46849      6.03431      0.02070        -0.000548      0.016130     -0.013833
Li	      8.60114      8.38708     -4.26851         0.005689     -0.018043      0.003617
Li	     10.70595      4.15362     -2.07040         0.015575     -0.008359      0.008442
Li	     12.90922      6.23052     -6.31831        -0.007759     -0.000081     -0.011060
Li	      8.36619      8.48924      0.04960         0.019374      0.019710      0.003752
Li	     10.66526     10.46124     -4.20203        -0.009618      0.000365      0.017785
Li	     12.60122      6.26800     -2.08587         0.013648      0.001798      0.009631
Li	     10.74479     -0.06892    -10.52473         0.004047      0.050172      0.026411
Li	      6.44476      4.15071     -2.08034        -0.004348     -0.007664     -0.002874
Li	      8.57447      6.29307     -6.26487        -0.002520     -0.001812     -0.012954
Li	     10.73862      2.10764     -4.18278         0.005034      0.007147     -0.010853
Li	     12.89258      4.14993     -8.40603        -0.001102      0.010693     -0.004502
Li	      6.37044      2.37486     -4.16711        -0.001382     -0.015789      0.010166
Li	      8.47216      4.17384     -8.33184         0.012020      0.004361     -0.010201
Li	     10.67589      0.21762     -6.31535        -0.006440     -0.020239      0.009102
Li	     12.79262      2.06256    -10.47688         0.011287      0.020605      0.001257
Li	      8.57150      6.25953     -2.07336         0.009182     -0.013402      0.033593
Li	     10.66206      8.43113     -6.23658         0.009000     -0.030119     -0.003528
Li	     12.72060      4.15030     -4.17212         0.021890     -0.001529      0.002856
Li	     14.96658      6.29014     -8.36471         0.018517     -0.014114      0.012799
Mn	      8.55241      4.16474     -4.16806        -0.007081     -0.000894     -0.005001
Mn	     10.68329      6.26274     -8.36541         0.004633     -0.015484     -0.006237
Mn	      4.26419      6.33466     -2.04116        -0.004788     -0.002221      0.004239
Mn	     14.99036      4.09122    -10.47945        -0.024078     -0.010384      0.030440
Mn	     10.59325      8.43244     -2.14439        -0.005408      0.002153      0.075613
Mn	     12.78731     10.46720     -6.26720         0.018502     -0.028780     -0.001890
Mn	     14.89066      6.29617     -4.22209         0.003589     -0.038828      0.068566
Mn	      8.53027     12.62293     -4.12649        -0.007766     -0.026144      0.017851
Mn	      2.11774      2.10464      0.10907        -0.007060     -0.033179     -0.046251
Mn	      4.21749      4.25718     -4.15867         0.013840      0.000201     -0.017364
Mn	      6.40415     -0.05970     -1.98928        -0.031009     -0.037952     -0.061132
Mn	      8.52749      2.07474     -6.27583        -0.010188     -0.002194     -0.026359
Mn	      4.29279      6.30498      2.10343         0.004282     -0.000717      0.022518
Mn	      6.41940      8.43491     -2.11191         0.009866      0.031053      0.039383
Mn	      8.59828      4.12516      0.00448         0.004817     -0.001184      0.019602
Mn	     10.70529      6.28987     -4.19769         0.003040      0.029410      0.007616
Mn	      6.40886      8.40462      2.11016         0.018616      0.066870     -0.041370
Mn	      4.29950      2.08979     -6.27512         0.012452      0.008072     -0.002521
Mn	     10.73314      6.20278      0.00904         0.005728      0.062757      0.026070
Mn	      8.62323     -0.06106     -8.41063         0.003046      0.023506     -0.010451
Mn	      4.26499      4.22845     -0.02247         0.016770      0.019121     -0.007523
Mn	      6.44691      6.32714     -4.17855         0.001022      0.018120     -0.020694
Mn	      8.58518      2.06651     -2.13742        -0.001822     -0.010174      0.004856
Mn	     10.72846      4.16881     -6.30857        -0.001039      0.019737     -0.053654
O	      4.23103     -0.20409     -2.25230        -0.022892      0.001925      0.018951
O	      6.54451      1.97078     -6.19179         0.021449      0.063965     -0.005897
O	      8.71835     -2.37213     -4.29267         0.028039      0.005403      0.008673
O	     10.85516     -0.12362     -8.34207         0.019529      0.031778      0.004217
O	      6.58053      4.04653     -0.00760        -0.003499     -0.026439     -0.016124
O	      8.68392      6.13172     -4.21035         0.019641      0.005309      0.005548
O	     10.89970      1.88043     -2.14907         0.003508     -0.004528     -0.006397
O	     13.03097      3.97221     -6.26552         0.004917     -0.001078     -0.017145
O	      6.35091      2.02514     -1.98470         0.012031      0.055130      0.000110
O	      8.48457      4.04477     -6.13785        -0.011547      0.003228      0.006390
O	     10.67425     -0.24495     -4.12596         0.020596      0.005758     -0.016332
O	     12.80545      1.90832     -8.25501        -0.003084      0.003494      0.016064
O	      8.51575      6.13151      0.13201        -0.053217     -0.010431     -0.000480
O	     10.61708      8.23553     -4.21957        -0.017311     -0.042450     -0.039466
O	     12.90442      4.00329     -2.01253        -0.043463     -0.008267      0.003598
O	     14.92250      6.02252     -6.27505        -0.006295     -0.016583     -0.058240
O	      4.24736      2.24105     -4.25828         0.026299      0.010459      0.007071
O	      6.49039      4.36244     -8.38445         0.006420     -0.012187      0.022863
O	      8.60847      0.09005     -6.39917         0.039138      0.015440      0.010392
O	     10.78223      2.09799    -10.57557         0.010150     -0.054881      0.070862
O	      6.51524      6.47083     -2.19059        -0.001772     -0.003729      0.003619
O	      8.60654      8.50071     -6.42698         0.014310     -0.023607     -0.007559
O	     10.79554      4.30708     -4.31677        -0.019909      0.029452      0.014457
O	     12.91055      6.33243     -8.52691        -0.001739     -0.018374     -0.008847
O	      4.11266      2.24995     -0.04582         0.001701      0.000059     -0.009517
O	      6.24006      4.36006     -4.15123        -0.012674      0.007411      0.007957
O	      8.51913      0.11655     -2.17810         0.069913     -0.000653     -0.013448
O	     10.55137      2.20525     -6.26346         0.008523     -0.020582     -0.004612
O	      6.25813      6.32806      2.07528        -0.012588     -0.038993     -0.006102
O	      8.42744      8.60810     -1.92710        -0.038892     -0.004308     -0.008831
O	     10.57251      4.12928     -0.00418         0.001318     -0.038165      0.003746
O	     12.78986      6.44248     -4.11242        -0.060283     -0.012757      0.001845
O	      4.26284      4.04754     -6.38801         0.007432      0.004073      0.008602
O	      8.54785      1.91408     -8.52560         0.000600      0.015082      0.005408
O	      4.31561      6.22481     -0.09812         0.002567      0.000641     -0.012920
O	      6.48486      8.29516     -4.27522        -0.001914      0.007014     -0.003357
O	      8.59976      4.05604     -2.21940         0.010009      0.001195     -0.011160
O	     10.75805      6.13127     -6.40743        -0.012172      0.002992     -0.013538
O	      4.20429      4.34937     -1.96190         0.005579      0.006040     -0.016404
O	      6.36050      6.43865     -6.13260         0.009262     -0.002178      0.000034
O	      8.52383      2.18013     -4.08424         0.005462     -0.012882     -0.005226
O	     10.64454      4.27290     -8.26582        -0.000637      0.011056      0.067053
O	      8.58635     10.64886     -4.02199        -0.017257      0.004374      0.002094
O	     10.65951      6.39093     -1.99087        -0.016255     -0.049470     -0.082604
O	     12.87260      8.48423     -6.14017        -0.017426     -0.000453      0.011664
