# total energy = -592.33430941 eV
 
CRYSTAL
PRIMVEC
4.102341 8.191328 4.082046 
8.309176 -4.148652 -4.090736 
4.146345 4.036870 -8.093328 
PRIMCOORD
93 1
Li	      4.14382      1.89849     -2.23567        -0.733681     -0.021932      0.600633
Li	      6.04475      3.90245     -5.89752        -0.378167      0.171729     -0.542050
Li	      8.03560     -0.03945     -3.88881         0.125593     -0.887137     -0.291175
Li	     10.03357      1.83868     -7.86682        -0.115710      0.243816     -0.526746
Li	      5.99790      5.66102      0.01945        -0.101157      0.327661     -0.200979
Li	      8.02890      7.87816     -3.91409        -0.190976      0.504355     -0.036739
Li	      9.99259      3.82423     -1.92862         0.700574     -0.418597      0.021841
Li	     12.06148      5.81621     -5.87442         0.282124      0.386212      0.090449
Li	      4.15310     -0.06356     -3.93757        -0.490445      0.071437     -0.302841
Li	      9.95154      9.79830     -3.86512         0.454169      0.493672     -0.086577
Li	     11.82066      5.79982     -1.92242         0.888355     -0.383322      0.648945
Li	     10.01187      0.02413     -9.80416        -0.068638     -0.428356     -0.303376
Li	      5.93671      3.81704     -1.97895        -0.110967      0.187311      0.337817
Li	      8.01723      5.95274     -5.64453        -0.135988      0.149818     -0.921612
Li	     10.04524      1.93623     -3.90076        -0.022499     -0.565185      0.428807
Li	     12.03862      3.83158     -7.88315         0.132642      0.149636     -0.247821
Li	      5.99770      1.95228     -3.96431        -0.140492     -0.324405      0.116944
Li	      7.92201      3.65489     -7.82291         0.061656     -0.003590     -0.333502
Li	     10.01195      0.17067     -5.86936         0.260130     -0.601414      0.237923
Li	     11.91355      1.90837     -9.80896         0.371790     -0.033145     -0.748947
Li	      7.93629      5.87278     -1.93916        -0.035224      0.136476      0.337692
Li	      9.93951      7.86156     -5.81052         0.684988      0.140692     -0.117493
Li	     11.82355      3.80526     -3.90797         1.139695      0.309447      0.290569
Li	     13.97089      5.87974     -7.81913         0.410553      0.064012     -0.130682
Mn	      7.96459      3.86390     -3.87230        -0.431345      0.089497     -0.220397
Mn	     10.05215      5.82812     -7.80660         0.265670      2.196092     -3.145463
Mn	     12.00515      1.91897     -5.86954         0.522831     -1.486220     -3.828225
Mn	      6.00057      7.84623     -5.83661        -1.013398      3.233967     -2.773854
Mn	      9.95277      7.82479     -1.89925         0.680613      3.834078      2.229340
Mn	      7.88487      5.86047      1.94769         0.086743      0.744553      4.138566
Mn	      9.95026     -1.98040     -7.83330        -0.096664     -2.236874     -0.885333
Mn	      7.95111     11.77053     -3.84587         0.273280      4.755308     -1.352291
Mn	      1.91356      1.96135      0.06557        -2.147027     -0.239170      0.390011
Mn	      3.96324      3.97560     -3.90503        -2.508016      1.918857      0.689553
Mn	      5.97887     -0.04467     -1.96630        -0.646433     -1.601623      0.375412
Mn	      7.99611      1.90996     -5.84934        -1.106043     -0.820905     -0.758290
Mn	      4.02794      5.88391      1.96708        -3.257584      1.014408      1.656084
Mn	      5.97746      7.86684     -2.04699        -2.200367      3.313908      2.077870
Mn	      7.98662      3.89173     -0.00528        -0.994681     -2.375042      1.657988
Mn	      9.99314      5.85853     -3.87209         1.627475      0.547108     -0.373189
Mn	      2.03801     -0.02566     -1.90595        -2.065605     -0.594929      0.997427
Mn	      3.98745      1.94938     -5.86673        -1.057508     -3.187259     -1.067259
Mn	      9.98007      5.87400      0.00478         2.501805      1.830997      3.439194
Mn	      8.04798     -0.03183     -7.84317        -0.793254     -2.125059     -2.595604
Mn	      4.03945      3.99496     -0.00368        -1.190907     -1.739634      1.802895
Mn	      6.01681      5.88449     -3.92668        -0.911217      0.258479      0.332048
Mn	      8.03911      1.92680     -1.98455         0.781209     -1.188225      2.980224
Mn	      9.97813      3.90807     -5.89565         0.937652     -0.234485     -0.306202
O	      3.91150     -0.17670     -2.08401         0.473466      0.115862     -0.089966
O	      6.13411      1.75286     -5.85980        -1.742813     -0.661305     -0.800492
O	      8.02081     -2.20497     -3.97370         0.061515     -1.346431     -0.183218
O	     10.13598     -0.06997     -7.82217         0.908241     -0.068424     -0.463785
O	      6.07317      3.75449     -0.00336        -0.576682     -0.210386      0.843697
O	      8.12063      5.70661     -3.87250        -0.570429      1.577782      0.367323
O	     10.17709      1.81729     -1.98885         0.554968     -0.893169      0.563930
O	     12.14638      3.75772     -5.90195         0.796847      0.765692     -0.144655
O	      5.86294      1.90224     -1.79359         0.108716     -0.341258      0.641429
O	      7.92167      3.73990     -5.70813        -0.573130      1.852050     -1.447023
O	     10.04686     -0.16713     -3.82096         1.143167     -0.786196     -0.241789
O	     11.95239      1.82016     -7.73359         0.913956     -0.013912     -2.172129
O	      7.86087      5.73574      0.11419         0.061968      1.477734     -2.090369
O	      9.91715      7.68324     -3.73876         0.038916      2.202050     -1.010065
O	     12.05655      3.76982     -1.86680         1.536461     -0.284788     -0.038347
O	     13.90670      5.63294     -5.82674         2.201304     -0.248269      0.261582
O	      3.97138      2.08710     -4.01434        -0.534043     -1.302675      0.490735
O	      6.12297      4.02333     -7.79150        -0.411377      0.197014     -1.770017
O	      8.10836      0.08389     -5.99659        -0.160701     -1.938807      0.795935
O	     10.01874      1.92124     -9.93060         0.143833      0.010459     -1.633626
O	      6.05980      6.04330     -2.07538        -0.237501     -1.477131      1.402241
O	      8.06130      7.92083     -5.89753         0.533078      0.134188     -1.057899
O	     10.05754      4.03568     -4.03677         0.291983     -1.832769      1.409719
O	     12.05026      5.93523     -7.94510         1.142273      0.231366     -0.908167
O	      5.83886      4.05232     -3.90132         0.637245     -1.514927     -0.059397
O	      7.99013      0.12222     -1.97268        -0.157055     -2.321142      0.946567
O	      9.86441      2.07457     -5.85375         1.233264     -1.527922      0.209108
O	      5.84529      5.89568      1.95931         1.265660      0.738682      0.642947
O	      7.81289      8.00767     -1.86001         1.489751      0.941957      0.945244
O	      9.84863      4.00844     -0.01767         1.033660     -1.312161      0.866456
O	     11.91863      6.00466     -3.84372         0.820435      0.404605      0.753710
O	      3.98497      3.77958     -5.95624        -0.864407      1.152984     -0.449763
O	      6.00735     -0.14164     -4.01386        -0.559410     -1.263094     -1.025475
O	      8.00134      1.80629     -7.96203        -0.491266      0.470836     -0.954792
O	      4.07084      5.96938     -0.10480         0.141499      1.326873      4.127595
O	      6.04257      7.72830     -4.02069        -0.501909      1.841311      0.826876
O	      8.01259      3.77099     -2.06090        -0.064023      1.675929      1.424408
O	      9.95433      5.74195     -5.98768        -0.228140      2.069075      1.043352
O	      3.95230      4.06482     -1.88277        -0.682899     -0.320675     -0.778680
O	      6.05726      5.97259     -5.75482        -0.295993     -0.992649     -1.690611
O	      7.96073      2.02410     -3.79848        -0.005494     -1.442408     -1.586577
O	      9.87675      4.01064     -7.73579        -0.072782     -1.127089     -1.932829
O	      7.97703      9.93165     -3.75579         0.284977     -0.707262      0.544312
O	      9.93619      5.98213     -1.81865        -0.145710     -1.552352     -0.542242
O	     11.94859      7.90451     -5.72930         0.813030      0.723732      0.183164
