# total energy = -600.45674408 eV
 
CRYSTAL
PRIMVEC
4.144852 8.276212 4.124347 
8.395281 -4.191643 -4.133127 
4.189313 4.078703 -8.177196 
PRIMCOORD
93 1
Li	      4.23014      1.93805     -2.28223        -0.484586     -0.015774      0.420221
Li	      6.17069      3.98375     -6.02038        -0.245591      0.141934     -0.381469
Li	      8.20300     -0.04027     -3.96982         0.094962     -0.619697     -0.169759
Li	     10.24261      1.87699     -8.03071        -0.068715      0.160333     -0.369131
Li	      6.12286      5.77896      0.01986        -0.089065      0.203157     -0.148284
Li	      8.19616      8.04228     -3.99563        -0.140881      0.347409     -0.024805
Li	     10.20077      3.90390     -1.96879         0.470508     -0.318269      0.013564
Li	     12.31276      5.93739     -5.99681         0.206393      0.223166      0.056472
Li	      4.23962     -0.06488     -4.01960        -0.323039      0.075256     -0.198473
Li	     10.15886     10.00243     -3.94563         0.328262      0.358537     -0.039050
Li	     12.06693      5.92065     -1.96247         0.604456     -0.260885      0.461121
Li	     10.22045      0.02463    -10.00841        -0.033396     -0.280846     -0.205512
Li	      6.06039      3.89655     -2.02019        -0.092901      0.101620      0.234003
Li	      8.18425      6.07675     -5.76212        -0.102043      0.112270     -0.618870
Li	     10.25451      1.97656     -3.98202        -0.034847     -0.408659      0.302804
Li	     12.28942      3.91141     -8.04738         0.089887      0.100846     -0.194316
Li	      6.12265      1.99295     -4.04690        -0.086040     -0.228010      0.088709
Li	      8.08705      3.73103     -7.98589         0.047345     -0.010522     -0.221241
Li	     10.22053      0.17422     -5.99164         0.189788     -0.418166      0.148902
Li	     12.16174      1.94814    -10.01331         0.252190      0.000336     -0.577350
Li	      8.10163      5.99513     -1.97956        -0.032613      0.091296      0.205270
Li	     10.14658      8.02534     -5.93156         0.453680      0.081915     -0.086244
Li	     12.06987      3.88453     -3.98939         0.770003      0.218948      0.167549
Li	     14.26194      6.00223     -7.98203         0.288155      0.027320     -0.114517
Mn	      8.13051      3.94439     -3.95298        -0.293274      0.013665     -0.141223
Mn	     10.26156      5.94953     -7.96922         0.203255      1.421255     -2.262390
Mn	     12.25524      1.95895     -5.99181         0.559061     -1.037067     -2.457740
Mn	      6.12558      8.00969     -5.95821        -0.716933      2.230557     -1.837816
Mn	     10.16012      7.98779     -1.93882         0.453415      2.702504      1.530948
Mn	      8.04913      5.98256      1.98827         0.121808      0.562047      2.978606
Mn	     10.15756     -2.02166     -7.99650        -0.027154     -1.524945     -0.627584
Mn	      8.11676     12.01575     -3.92599         0.291529      3.676879     -0.890429
Mn	      1.95343      2.00220      0.06693        -1.602847     -0.189190      0.236715
Mn	      4.04581      4.05842     -3.98638        -1.730396      1.299983      0.546405
Mn	      6.10343     -0.04560     -2.00727        -0.433696     -1.047146      0.241750
Mn	      8.16269      1.94975     -5.97120        -0.757688     -0.542380     -0.494695
Mn	      4.11185      6.00650      2.00806        -2.351710      0.699415      1.155494
Mn	      6.10200      8.03073     -2.08964        -1.511602      2.280564      1.409989
Mn	      8.15300      3.97280     -0.00540        -0.709925     -1.632896      1.055241
Mn	     10.20133      5.98058     -3.95276         1.066191      0.357454     -0.263393
Mn	      2.08047     -0.02620     -1.94565        -1.477945     -0.377986      0.765669
Mn	      4.07053      1.98999     -5.98895        -0.804691     -2.277867     -0.673063
Mn	     10.18798      5.99637      0.00488         1.767409      1.312824      2.543614
Mn	      8.21565     -0.03250     -8.00656        -0.483552     -1.498774     -1.660406
Mn	      4.12361      4.07819     -0.00376        -0.849905     -1.208154      1.239125
Mn	      6.14217      6.00707     -4.00849        -0.596998      0.215423      0.205511
Mn	      8.20659      1.96694     -2.02590         0.471389     -0.918211      2.000957
Mn	     10.18599      3.98949     -6.01847         0.616062     -0.150852     -0.244010
O	      3.99298     -0.18039     -2.12743         0.147092     -0.183855     -0.176138
O	      6.26191      1.78938     -5.98188        -1.173382     -0.535279     -0.563768
O	      8.18791     -2.25090     -4.05647         0.101176     -1.288243     -0.114027
O	     10.34713     -0.07143     -7.98512         0.657874     -0.107889     -0.363029
O	      6.19969      3.83271     -0.00343        -0.308976     -0.119328      0.637794
O	      8.28981      5.82549     -3.95317        -0.328652      1.027026      0.251991
O	     10.38910      1.85515     -2.03028         0.581104     -0.640629      0.365742
O	     12.39942      3.83601     -6.02490         0.605872      0.435543     -0.138533
O	      5.98508      1.94187     -1.83096         0.038614     -0.130941      0.579924
O	      8.08670      3.81781     -5.82704        -0.354606      1.193613     -0.923581
O	     10.25616     -0.17061     -3.90056         0.778978     -0.525686     -0.160887
O	     12.20138      1.85808     -7.89470         0.669722     -0.044890     -1.422814
O	      8.02464      5.85522      0.11656         0.064225      0.961765     -1.105844
O	     10.12375      7.84330     -3.81666         0.018664      1.459436     -0.675810
O	     12.30773      3.84836     -1.90569         1.178491     -0.289059      0.022477
O	     14.19642      5.75029     -5.94813         1.585389     -0.173643      0.159438
O	      4.05411      2.13058     -4.09797        -0.368623     -0.790945      0.230794
O	      6.25052      4.10715     -7.95381        -0.304848      0.032536     -1.258305
O	      8.27728      0.08563     -6.12152        -0.111666     -1.258916      0.424248
O	     10.22746      1.96126    -10.13748         0.073835     -0.249641     -1.383809
O	      6.18604      6.16920     -2.11862        -0.153189     -0.924428      0.903944
O	      8.22924      8.08585     -6.02039         0.404537      0.164809     -0.758924
O	     10.26706      4.11976     -4.12087         0.216940     -1.189261      0.902101
O	     12.30130      6.05888     -8.11062         0.801316      0.222093     -0.684499
O	      5.96050      4.13675     -3.98259         0.346954     -0.931800     -0.053909
O	      8.15658      0.12477     -2.01377         0.033275     -1.469706      0.661529
O	     10.06992      2.11779     -5.97571         0.800466     -0.981455      0.139521
O	      5.96707      6.01850      2.00012         0.699693      0.548578      0.458601
O	      7.97565      8.17449     -1.89876         0.980296      0.746374      0.636872
O	     10.05381      4.09195     -0.01804         0.626821     -0.807123      0.638720
O	     12.16693      6.12975     -3.92380         0.489379      0.370205      0.539028
O	      4.06799      3.85831     -6.08032        -0.621483      0.644404     -0.383834
O	      6.13250     -0.14459     -4.09747        -0.410284     -1.007487     -0.751485
O	      8.16803      1.84392     -8.12790        -0.359721      0.231143     -0.934889
O	      4.15565      6.09375     -0.10698        -0.107600      0.975461      2.598722
O	      6.16846      7.88930     -4.10445        -0.331514      1.185693      0.561376
O	      8.17952      3.84955     -2.10384        -0.026389      1.111543      0.964706
O	     10.16170      5.86157     -6.11242        -0.153843      1.366192      0.650728
O	      4.03464      4.14950     -1.92199        -0.489381     -0.203811     -0.488309
O	      6.18344      6.09701     -5.87471        -0.178354     -0.666196     -1.043400
O	      8.12657      2.06626     -3.87761        -0.001291     -0.902517     -0.997056
O	     10.08251      4.09420     -7.89694        -0.036975     -0.690900     -1.207409
O	      8.14323     10.13855     -3.83404         0.212376     -0.303569      0.415453
O	     10.14319      6.10676     -1.85653        -0.112815     -1.015563     -0.277968
O	     12.19751      8.06918     -5.84865         0.556789      0.705730      0.017653
