# total energy = -605.88604330 eV
 
CRYSTAL
PRIMVEC
4.314898 8.615749 4.293551 
8.739703 -4.363608 -4.302691 
4.361182 4.246034 -8.512671 
PRIMCOORD
93 1
Li	      4.58435      2.10033     -2.47334         0.211503     -0.054359     -0.218177
Li	      6.68738      4.31733     -6.52449         0.119324     -0.063393      0.230640
Li	      8.88987     -0.04364     -4.30223        -0.069132      0.385603      0.016329
Li	     11.10026      2.03415     -8.70315         0.032786     -0.070056      0.192570
Li	      6.63555      6.26286      0.02152         0.053494     -0.059007      0.013379
Li	      8.88246      8.71570     -4.33020         0.108358     -0.169626      0.029137
Li	     11.05492      4.23079     -2.13366        -0.236905      0.185489     -0.023046
Li	     13.34377      6.43454     -6.49895        -0.142907     -0.087616     -0.028416
Li	      4.59462     -0.07032     -4.35618         0.126696     -0.108437      0.076878
Li	      6.69461      2.22422     -8.56957        -0.208753     -0.219185      0.051671
Li	      8.76244     -2.19934     -6.42035        -0.333891      0.133024     -0.310467
Li	     11.07625      0.02670    -10.84645         0.013451      0.112538      0.229103
Li	      6.56785      4.22283     -2.18935         0.058245     -0.023487     -0.130158
Li	      8.86955      6.58558     -6.24461         0.081927     -0.032372      0.277700
Li	     11.11316      2.14208     -4.31545         0.025368      0.253716     -0.214611
Li	     13.31847      4.23893     -8.72123        -0.054825     -0.047756      0.174672
Li	      6.63533      2.15983     -4.38577         0.026040      0.127628     -0.002367
Li	      8.76422      4.04345     -8.65458         0.008613      0.037466      0.146001
Li	     11.07634      0.18881     -6.49334        -0.135400      0.239388     -0.047708
Li	     13.18010      2.11126    -10.85176        -0.165153      0.017678      0.541664
Li	      8.78001      6.49713     -2.14532         0.042450     -0.085837     -0.060590
Li	     10.99620      8.69733     -6.42824        -0.205659     -0.054752      0.075337
Li	     13.08053      4.20980     -4.32343        -0.313328     -0.107247     -0.053997
Li	     15.45615      6.50482     -8.65039        -0.203095      0.020777      0.179463
Mn	      8.81131      4.27467     -4.28397         0.094654      0.023157      0.040474
Mn	      6.75962      2.20169     -0.12385        -0.206699     -0.569003      1.401259
Mn	      4.54173      6.48659     -2.19084        -0.528247      0.424771      0.757397
Mn	      2.27732      4.43433      2.05554         0.286452     -1.283760      0.815391
Mn	      6.69597      0.04090     -6.39472        -0.188809     -1.626994     -0.733039
Mn	      4.40823     -2.13225     -2.13880        -0.182528     -0.603377     -2.381598
Mn	      2.26839      2.17266     -4.36338        -0.105640      0.590071      0.480603
Mn	      0.12033      0.16009     -0.03561        -0.415506     -4.508724      0.461853
Mn	      2.11700      2.16986      0.07253         1.319548      0.297287     -0.078139
Mn	      4.38458      4.39825     -4.32019         1.068356     -0.615464     -0.370258
Mn	      6.61450     -0.04942     -2.17535         0.218117      0.498205     -0.144583
Mn	      8.84619      2.11301     -6.47119         0.405783      0.242370      0.227328
Mn	      4.45616      6.50944      2.17620         1.396628     -0.400017     -0.578827
Mn	      6.61294      8.70318     -2.26461         0.848355     -1.221109     -0.533576
Mn	      8.83568      4.30546     -0.00584         0.298526      0.781892     -0.447069
Mn	     11.05554      6.48136     -4.28374        -0.466839     -0.185591      0.138396
Mn	      2.25468     -0.02838     -2.10857         1.173063      0.240846     -0.739905
Mn	      4.41137      2.15663     -6.49043         0.814578      1.381214      0.237353
Mn	      6.72617     -2.11728     -4.28827        -0.971480     -0.781090     -2.402861
Mn	      8.90357     -0.03522     -8.67698         0.154392      0.886145      0.690468
Mn	      4.46889      4.41967     -0.00407         0.519919      0.499791     -0.748794
Mn	      6.65647      6.51008     -4.34413         0.349904     -0.185558     -0.123290
Mn	      8.89376      2.13164     -2.19554        -0.185959      0.544947     -1.042214
Mn	     11.03891      4.32354     -6.52243        -0.277113      0.043316      0.130636
O	      4.32734     -0.19549     -2.30557         0.092632      0.606033      0.237381
O	      6.78624      1.93921     -6.48276         0.428110      0.619954      0.292103
O	      8.87353     -2.43938     -4.39615        -0.276071      3.134185     -0.069305
O	     11.21355     -0.07741     -8.65375        -0.534716      0.286166      0.217985
O	      6.71882      4.15365     -0.00372         0.131789      0.023697     -0.427119
O	      8.98396      6.31328     -4.28419         0.005301     -0.376622     -0.095381
O	     11.25903      2.01049     -2.20028        -0.554601      0.537514     -0.176678
O	     13.43768      4.15721     -6.52939        -0.545824     -0.013775      0.089525
O	      6.48624      2.10447     -1.98428        -0.048288      0.088706     -0.605134
O	      8.76384      4.13749     -6.31497         0.089545     -0.424467      0.282975
O	     11.11495     -0.18490     -4.22717        -0.449338      0.279458      0.012983
O	     13.22306      2.01366     -8.55576        -0.467756      0.132687      0.531637
O	      8.69658      6.34551      0.12633        -0.090052     -0.364218      0.128230
O	     10.97146      8.50005     -4.13624         0.009870     -0.551752      0.200692
O	     13.33831      4.17059     -2.06526        -1.131249      0.340823     -0.101881
O	     15.38515      6.23179     -6.44618        -1.114535      0.156016     -0.171252
O	      4.39358      2.30899     -4.44111         0.269343      0.241309      0.069807
O	      6.77392      4.45105     -8.61982         0.164492      0.107085      0.806295
O	      8.97038      0.09281     -6.63409         0.038563      0.479793     -0.024960
O	     11.08385      2.12549    -10.98633         0.121553      0.352384      1.979159
O	      6.70403      6.68578     -2.29602         0.115383      0.350917     -0.319888
O	      8.91831      8.76291     -6.52450        -0.195869     -0.124084      0.589644
O	     11.12677      4.46472     -4.46592        -0.086136      0.414177     -0.332017
O	     13.33134      6.56622     -8.78976        -0.376041     -0.194899      0.590108
O	      6.45961      4.48313     -4.31607        -0.071394      0.276341      0.060976
O	      8.83957      0.13522     -2.18239        -0.020757      0.510675     -0.384270
O	     10.91311      2.29513     -6.47607        -0.276601      0.375848     -0.093554
O	      6.46672      6.52245      2.16760        -0.246388     -0.367584     -0.223336
O	      8.64349      8.85898     -2.05776        -0.404196     -0.645963     -0.310800
O	     10.89566      4.43458     -0.01956        -0.129479      0.242014     -0.516403
O	     13.18572      6.64302     -4.25235        -0.107536     -0.463453     -0.309569
O	      4.40862      4.18139     -6.58945         0.378469     -0.056007      0.281294
O	      6.64600     -0.15670     -4.44057         0.225217      0.822351      0.472333
O	      8.85197      1.99832     -8.80849         0.195844      0.015492      1.563335
O	      4.50361      6.60400     -0.11595         0.249300     -0.455110     -0.671313
O	      6.68497      8.54990     -4.44813         0.177790     -0.431824     -0.240696
O	      8.86443      4.17189     -2.28000         0.014497     -0.475527     -0.415843
O	     11.01260      6.35239     -6.62424         0.100142     -0.577478     -0.299630
O	      4.37248      4.49695     -2.08293         0.307242      0.087760      0.103622
O	      6.70122      6.60754     -6.36663         0.022482      0.212147      0.349102
O	      8.80705      2.23928     -4.20230         0.005838      0.268156      0.361799
O	     10.92676      4.43702     -8.55819        -0.003173      0.233414      0.517135
O	      8.82509     10.98750     -4.15508        -0.115930     -0.202630     -0.296689
O	     10.99252      6.61810     -2.01199         0.103420      0.306185      0.016194
O	     13.21886      8.74485     -6.33838        -0.259554     -0.579397      0.129388
