# total energy = -569.41412786 eV
 
CRYSTAL
PRIMVEC
4.463687 8.912844 4.441604 
9.041072 -4.514077 -4.451060 
4.511567 4.392449 -8.806211 
PRIMCOORD
93 1
Li	      4.90596      2.24768     -2.64686         0.629219      0.096453     -0.559763
Li	      7.15653      4.62021     -6.98221         0.365760     -0.224492      0.824120
Li	      9.51354     -0.04671     -4.60406        -0.219384      1.377292      0.034538
Li	     11.87900      2.17686     -9.31372         0.210239     -0.141014      0.632669
Li	      7.10106      6.70223      0.02303         0.074975     -0.163056     -0.195542
Li	      9.50561      9.32715     -4.63399         0.314826     -0.591589      0.064714
Li	     11.83048      4.52761     -2.28334        -0.874683      0.555876     -0.137167
Li	     14.27989      6.88596     -6.95488        -0.525005     -0.283870     -0.133411
Li	      4.91695     -0.07525     -4.66178         0.387828     -0.234589      0.167065
Li	      7.31819      2.68761     -9.01761        -0.705372     -0.815504      0.381029
Li	      9.53109     -2.04630     -6.71760        -0.990329      0.680044     -1.248390
Li	     11.85330      0.02858    -11.60739         0.059508      0.112863      1.905041
Li	      7.02862      4.51909     -2.34294         0.124370     -0.001135     -0.359391
Li	      9.49179      7.04759     -6.68270         0.198385     -0.203818      0.776328
Li	     11.89280      2.29235     -4.61819         0.030430      0.796683     -0.602950
Li	     14.25281      4.53630     -9.33306        -0.260326     -0.179232      0.797667
Li	      7.10082      2.31135     -4.69344         0.104019      0.375153      0.048825
Li	      9.37906      4.32711     -9.26174         0.101978      0.391299      0.627079
Li	     11.85340      0.20205     -6.94888        -0.520474      0.693024     -0.007216
Li	     14.10474      2.25937    -11.61306        -0.775439      0.346592      2.762943
Li	      9.39598      6.95293     -2.29583         0.123922     -0.303574     -0.186567
Li	     11.76763      9.30749     -6.87920        -0.571977     -0.283354      0.292939
Li	     13.99819      4.50514     -4.62674        -0.887095     -0.428585     -0.275028
Li	     16.54048      6.96116     -9.25726        -1.063954      0.039762      0.931283
Mn	      9.42947      4.57456     -4.58451         0.255029      0.080512      0.009588
Mn	      7.38941      2.50761     -0.43620        -0.222467     -1.038482      4.672889
Mn	      5.17212      6.78600     -2.49802        -1.561123      0.851438      1.155476
Mn	      2.59265      4.89689      1.89609         0.069944     -4.114297      1.835487
Mn	      7.31964      0.35111     -6.69017        -0.128853     -5.790325     -1.695723
Mn	      4.87140     -1.97449     -2.13568        -1.018291     -1.355803    -14.401539
Mn	      2.73929      2.16942     -4.82298        -0.570838      1.871243      1.707392
Mn	      0.43827      0.63013     -0.18861        -2.912743    -56.355596      3.508255
Mn	      2.26551      2.32208      0.07762         5.590016      2.085747      0.141040
Mn	      4.69218      4.70680     -4.62327         4.140792     -1.103123     -0.614227
Mn	      7.07853     -0.05289     -2.32795         0.871528      1.474446     -0.534270
Mn	      9.46680      2.26125     -6.92518         1.208980      0.680645      0.780067
Mn	      4.76878      6.96611      2.32888         4.226558     -1.120953     -1.466609
Mn	      7.07686      9.31375     -2.42348         2.421296     -3.747592     -1.593793
Mn	      9.45555      4.60752     -0.00625         0.607217      1.726387     -1.347496
Mn	     11.83113      6.93607     -4.58426        -1.285822     -0.581051      0.424596
Mn	      2.41285     -0.03038     -2.25650         7.147357     -0.448578     -1.707340
Mn	      4.72085      2.30792     -6.94577         4.640772      3.747647      0.058786
Mn	      7.35196     -1.95848     -4.43595        -2.802897     -1.243807    -17.105215
Mn	      9.52820     -0.03769     -9.28572         0.107756      3.254058      1.692942
Mn	      4.78240      4.72973     -0.00436         1.591016      1.578638     -2.414857
Mn	      7.12345      6.96679     -4.64889         0.879335     -0.790687     -0.295718
Mn	      9.51769      2.28118     -2.34956        -0.538338      1.156733     -3.486469
Mn	     11.81335      4.62686     -6.98001        -0.674932      0.006403      0.468572
O	      4.63092     -0.20921     -2.46732        -0.257865      2.911662      0.738588
O	      7.26232      2.07525     -6.93755         0.221877      3.396713      0.512549
O	      9.49604     -2.61051     -4.70456        -0.912782     51.576737     -3.120245
O	     12.00023     -0.08284     -9.26086        -2.780553      0.851409      0.430662
O	      7.19017      4.44504     -0.00398        -0.088823      0.062827     -1.373748
O	      9.61422      6.75619     -4.58475        -0.200726     -0.696717     -0.237235
O	     12.04890      2.15154     -2.35464        -2.283619      2.491533     -0.325427
O	     14.38039      4.44886     -6.98745        -2.320437      0.820413      0.268272
O	      6.94127      2.25211     -2.12348        -0.616372      0.214770     -2.742816
O	      9.37866      4.42776     -6.75799         0.127375     -0.728106      0.373606
O	      2.85365      4.31621     -0.07267        -0.865928      0.243796     -0.275661
O	      5.10964      6.66901     -4.70493        -1.534125      0.210149      0.438023
O	      9.30668      6.79068      0.13518        -0.273910     -0.650579     -0.118187
O	     11.74116      9.09638     -4.42642         0.158174     -1.382405      0.169562
O	      5.23298      8.97726      2.24091        -6.038871      2.034555     -0.428032
O	      7.42342     11.18306     -2.44736        -4.808990      0.626462     -0.428020
O	      4.70181      2.47097     -4.75268         0.959079      0.499623      0.940435
O	      2.73756      0.37087     -0.41832         0.372259      1.098364      1.742763
O	      9.59969      0.09931     -7.09952         0.143287      0.952874      0.280102
O	      7.34986     -2.11785     -2.95086         0.583723     -0.113099     16.227161
O	      7.17434      7.15482     -2.45710         0.633350      0.644816     -0.309102
O	      5.03240      4.98521      1.82398        -0.316546     -0.925713      1.291778
O	     11.90737      4.77794     -4.77924        -0.185657      1.036382     -0.646404
O	      9.75503      2.63442     -0.60019        -0.797809     -0.251034      2.616455
O	      6.91277      4.79764     -4.61886         0.040585      0.338723      0.228928
O	      9.45971      0.14471     -2.33550        -0.058026      1.169973     -1.487520
O	     11.67871      2.45614     -6.93040        -0.260061      0.883252     -0.333591
O	      6.92038      6.98003      2.31967        -0.335205     -0.487428     -0.801904
O	      9.24987      9.48048     -2.20211        -0.704907     -2.657495     -0.411371
O	     11.66004      4.74569     -0.02093         0.232796      0.704339     -3.084580
O	     14.11076      7.10907     -4.55067         0.197410     -2.629106     -0.803288
O	      4.71791      4.47474     -7.05173         1.412400      0.563239      0.605886
O	      7.11226     -0.16769     -4.75210         0.266602      3.108941      1.414754
O	      9.47298      2.13851     -9.42644         0.956398     -1.220684     12.440612
O	      4.81956      7.06730     -0.12408         0.719408     -1.103445      0.064662
O	      7.15395      9.14972     -4.76018         0.672121     -0.972546     -0.399229
O	      9.48631      4.46456     -2.43996        -0.062316     -0.950347     -0.925091
O	     11.78518      6.79803     -7.08896         0.343911     -1.374304     -0.521481
O	      4.67922      4.81244     -2.22906         0.982646     -0.628332      0.425209
O	      7.17133      7.07110     -6.81327         0.039004      0.010332      0.268320
O	      9.42491      2.39638     -4.49711        -0.033899      0.458343      0.785971
O	     11.69331      4.74830     -9.15858        -0.168026      0.290188      1.281880
O	      9.44421     11.75833     -4.44658        -0.452640     -1.438517     -1.349846
O	     11.76370      7.08239     -2.15315         0.504631      0.237451     -0.340355
O	     14.14623      9.35834     -6.78306        -0.581661     -1.662833      0.584311
