# total energy = -608.76508559 eV
 
CRYSTAL
PRIMVEC
4.251131 8.488423 4.230099 
8.610545 -4.299121 -4.239104 
4.296731 4.183285 -8.386868 
PRIMCOORD
93 1
Li	      4.44986      2.03871     -2.40078        -0.024185     -0.048603      0.001986
Li	      6.49118      4.19066     -6.33307         0.006161      0.027096     -0.003068
Li	      8.62906     -0.04236     -4.17601         0.002803      0.005158     -0.016313
Li	     10.77460      1.97447     -8.44782        -0.006956      0.002243     -0.004288
Li	      6.44087      6.07912      0.02089        -0.004612      0.005603     -0.018132
Li	      8.62187      8.46000     -4.20317         0.002482      0.018145      0.006607
Li	     10.73059      4.10666     -2.07105         0.009996     -0.016192      0.001148
Li	     12.95228      6.24577     -6.30827        -0.009899     -0.005658      0.000707
Li	      4.45982     -0.06825     -4.22837        -0.012883     -0.020398      0.007582
Li	     10.68651     10.52195     -4.15057         0.003067      0.015574      0.007284
Li	     12.69367      6.22816     -2.06439         0.007215     -0.009635     -0.004632
Li	     10.75129      0.02592    -10.52824        -0.000861     -0.002042      0.016078
Li	      6.37516      4.09894     -2.12511        -0.006010     -0.004151      0.000311
Li	      8.60934      6.39237     -6.06141         0.003264      0.032257     -0.023898
Li	     10.78712      2.07922     -4.18884         0.000132     -0.006381     -0.018639
Li	     12.92773      4.11456     -8.46536         0.002321      0.002531      0.000962
Li	      6.44065      2.09646     -4.25709        -0.007919      0.000724      0.019070
Li	      8.50709      3.92482     -8.40067         0.013031      0.000336     -0.000052
Li	     10.75138      0.18327     -6.30284         0.005626     -0.007522     -0.002032
Li	     12.79341      2.04932    -10.53340         0.003292      0.008323      0.016651
Li	      8.52242      6.30652     -2.08238         0.002792     -0.017458      0.012370
Li	     10.67359      8.44217     -6.23965         0.006160     -0.002957     -0.005452
Li	     12.69678      4.08629     -4.19659         0.026484      0.003092     -0.005437
Li	     15.00270      6.31399     -8.39660         0.000630      0.005576      0.012948
Mn	      8.55281      4.14926     -4.15829        -0.024935     -0.033367     -0.003197
Mn	     10.79454      6.25856     -8.38314        -0.062373     -0.003301     -0.014273
Mn	     12.89178      2.06070     -6.30302         0.006589     -0.013101      0.008030
Mn	      6.44375      8.42571     -6.26768         0.004523     -0.037483     -0.010392
Mn	     10.68783      8.40268     -2.03952        -0.004841      0.005173      0.013883
Mn	      8.46720      6.29329      2.09154         0.019387      0.012484      0.027380
Mn	     10.68513     -2.12667     -8.41183        -0.009119     -0.075355      0.060497
Mn	      8.53834     12.63984     -4.12990         0.010151      0.015085      0.019725
Mn	      2.05489      2.10620      0.07041         0.066329      0.015704     -0.043898
Mn	      4.25595      4.26921     -4.19344        -0.001678     -0.011622     -0.004040
Mn	      6.42045     -0.04797     -2.11153        -0.014738      0.004255     -0.000236
Mn	      8.58666      2.05102     -6.28133         0.007762     -0.007972     -0.001168
Mn	      4.32541      6.31847      2.11236        -0.028686     -0.000335      0.013214
Mn	      6.41893      8.44784     -2.19817         0.001150      0.002555      0.062108
Mn	      8.57646      4.17915     -0.00568        -0.027662      0.017775      0.005240
Mn	     10.73118      6.29121     -4.15806         0.010554     -0.016017     -0.008637
Mn	      2.18853     -0.02755     -2.04671        -0.009597      0.064216     -0.067259
Mn	      4.28195      2.09336     -6.30001         0.002107      0.010186     -0.007354
Mn	     10.71714      6.30782      0.00513        -0.003649      0.028986      0.007911
Mn	      8.64236     -0.03418     -8.42241         0.014094     -0.007245     -0.006804
Mn	      4.33778      4.29000     -0.00395        -0.008673     -0.058575     -0.021461
Mn	      6.46118      6.31907     -4.21668         0.016798      0.001986     -0.024459
Mn	      8.63283      2.06911     -2.13112        -0.004636      0.002401      0.006459
Mn	     10.71505      4.19670     -6.33107        -0.005661      0.005830     -0.049584
O	      4.20038     -0.18976     -2.23792         0.005506      0.003041      0.002786
O	      6.58714      1.88231     -6.29257        -0.007309      0.005073     -0.000924
O	      8.61319     -2.36781     -4.26717        -0.036298     -0.021273      0.015034
O	     10.88456     -0.07514     -8.39987         0.025211      0.059380     -0.019567
O	      6.52170      4.03179     -0.00361         0.060606     -0.006872     -0.000746
O	      8.72038      6.12807     -4.15850         0.014645      0.018997      0.015138
O	     10.92871      1.95151     -2.13573         0.027027      0.021758      0.002554
O	     13.04344      4.03524     -6.33783         0.000628      0.002796     -0.014259
O	      6.29594      2.04273     -1.92606         0.017097      0.047897      0.030535
O	      8.50671      4.01611     -6.12970        -0.009642      0.004678     -0.002096
O	     10.78886     -0.17947     -4.10315        -0.038659      0.058954      0.005069
O	     12.83511      1.95458     -8.30474        -0.003790      0.028554     -0.011783
O	      8.44143      6.15935      0.12262         0.002279     -0.008779     -0.017495
O	     10.64958      8.25068     -4.01489        -0.007462     -0.001106     -0.015712
O	     12.94698      4.04824     -2.00466        -0.030653      0.011244      0.008503
O	     14.93378      6.04895     -6.25706         0.002151      0.011031     -0.057364
O	      4.26468      2.24124     -4.31082         0.019433     -0.012407     -0.002395
O	      6.57517      4.32047     -8.36692        -0.015515     -0.058459      0.047612
O	      8.70720      0.09008     -6.43946        -0.019422      0.003886     -0.001846
O	     10.75867      2.06313    -10.66401         0.015531     -0.075444     -0.012009
O	      6.50734      6.48962     -2.22866         0.002844      0.020339     -0.005060
O	      8.65666      8.50582     -6.33308         0.013980     -0.004687      0.056125
O	     10.80033      4.33374     -4.33490         0.004763      0.006670      0.022472
O	     12.94022      6.37358     -8.53188         0.010308     -0.007203      0.016882
O	      6.27009      4.35160     -4.18944        -0.009697      0.004039      0.004904
O	      8.58023      0.13125     -2.11837         0.030080     -0.020356      0.003421
O	     10.59294      2.22779     -6.28608        -0.002401      0.000696     -0.004392
O	      6.27700      6.33110      2.10401        -0.007827     -0.019066      0.001947
O	      8.38991      8.59908     -1.99738        -0.003516      0.002051     -0.014636
O	     10.57600      4.30448     -0.01898        -0.007270     -0.015843      0.004569
O	     12.79887      6.44814     -4.12759        -0.044274      0.001538      0.001276
O	      4.27928      4.05872     -6.39613        -0.001520      0.014711     -0.014849
O	      6.45102     -0.15209     -4.31030         0.013410     -0.007079     -0.011566
O	      8.59228      1.93969     -8.55006        -0.012453     -0.007412     -0.026086
O	      4.37148      6.41025     -0.11254        -0.011319      0.038447     -0.016029
O	      6.48884      8.29906     -4.31763         0.001784      0.017123      0.014201
O	      8.60436      4.04949     -2.21311         0.016001     -0.004411     -0.006941
O	     10.68950      6.16602     -6.42990         0.009188     -0.006822     -0.028384
O	      4.24419      4.36503     -2.02182        -0.005849      0.028622     -0.037157
O	      6.50461      6.41369     -6.17984        -0.010153     -0.013988      0.033336
O	      8.54867      2.17359     -4.07901         0.007755     -0.003536     -0.006168
O	     10.60619      4.30685     -8.30711         0.014645      0.013659      0.041883
O	      8.56618     10.66514     -4.03318         0.001368     -0.012900      0.015346
O	     10.67002      6.42393     -1.95297         0.000971     -0.022764      0.004049
O	     12.83104      8.48829     -6.15243        -0.007512     -0.002702      0.016372
