# total energy = -612.18490649 eV
 
CRYSTAL
PRIMVEC
4.350385 8.688386 4.305500 
8.832907 -4.411109 -4.314540 
4.410262 4.251887 -8.490515 
PRIMCOORD
94 1
Li	      4.54018      1.82807     -2.18662         0.150149      0.061103      0.000083
Li	      6.80165      4.26606     -6.53129         0.126823     -0.176430      0.402496
Li	      8.98388     -0.17076     -4.39614        -0.271508      0.219612     -0.009405
Li	     11.32687      2.06390     -8.74530         0.069926      0.140822      0.131665
Li	      6.92265      6.59983      0.00260         0.020132      0.048454     -0.017319
Li	      8.96672      8.73060     -4.29653         0.123470     -0.341767      0.008151
Li	     11.24696      4.40870     -2.13700        -0.217676      0.189097     -0.116225
Li	     13.48383      6.49344     -6.53310        -0.188639     -0.090354      0.051784
Li	      4.61338     -0.00443     -4.29306         0.065137      0.025449     -0.206248
Li	      6.74104      2.10913     -8.64573         0.128925     -0.214250      0.147301
Li	      8.98369     -2.18290     -6.52942        -0.149272      0.452926     -0.062645
Li	     11.35466      0.04089    -10.83784         0.029627     -0.186435      0.024857
Li	      6.92977      4.39885     -2.17335         0.214608      0.062111     -0.119344
Li	      8.95485      6.36308     -6.48126         0.053782     -0.299875      0.102307
Li	     11.01790      2.10271     -4.34402        -0.258301      0.224344     -0.268300
Li	     13.49164      4.47477     -8.69616        -0.129626      0.024879      0.202362
Li	      6.70035      2.09308     -4.37853        -0.047863      0.103023      0.001855
Li	      8.96213      4.34403     -8.64423         0.059630      0.036563      0.274397
Li	     11.02500     -0.09512     -6.51875        -0.246370     -0.012979      0.109502
Li	     13.47922      2.10657    -10.88068        -0.298672     -0.019339      0.536006
Li	      8.96289      6.67167     -2.12097         0.090733      0.045806     -0.245126
Li	     11.11918      8.77535     -6.43184        -0.268971     -0.093055      0.130339
Li	     13.40715      4.67291     -4.32975        -0.414039     -0.029171     -0.087893
Li	     15.64375      6.57218     -8.64660        -0.383388      0.080697      0.330583
Mn	      8.95808      4.35129     -4.31311         0.093509      0.020162     -0.105258
Mn	      6.75415      2.22209     -0.18594        -0.484443     -0.554366      1.743822
Mn	      4.60825      6.63302     -2.29150        -1.066415      0.491980     -0.139065
Mn	      2.31660      4.49760      2.03737         0.248053     -1.926270      0.897726
Mn	      6.80856      0.07348     -6.43159        -0.160940     -2.166425     -0.549266
Mn	      4.59077     -2.17375     -2.35303        -0.156083      1.142151      3.407278
Mn	      2.25515      2.16410     -4.30462         1.299534      0.997454      0.065671
Mn	      0.31486      0.17585     -0.15216        -2.456131     -2.710189      2.484511
Mn	      2.26991      2.14869     -0.00394         2.985556      0.805979     -0.262857
Mn	      4.50477      4.35510     -4.46344         1.879537     -1.258352     -0.670855
Mn	      6.76789     -0.07617     -2.19553         0.347369      0.406736     -0.494839
Mn	      8.99341      2.12140     -6.53037         0.083116      0.493354      0.303936
Mn	      4.43282      6.64467      2.34747         2.099603     -0.726581     -1.298647
Mn	      6.66770      8.85207     -2.11211         1.288215     -0.862871     -0.540568
Mn	      8.95381      4.38010      0.01342         0.173665     -0.242393     -0.827049
Mn	     11.18001      6.57720     -4.32137        -0.281953      0.124591      0.023201
Mn	      2.33251      0.14755     -2.11665         0.481864     -1.879562     -3.511689
Mn	      4.53705      2.13287     -6.52542         0.801733      1.666917      0.953269
Mn	      6.78847     -2.26014     -4.39100         0.267146      2.287952     -0.874272
Mn	      9.09490      0.07123     -8.63895        -0.777427     -1.380113     -0.532375
Mn	      4.50671      4.27886      0.08885         1.066607     -0.744318     -0.504494
Mn	      6.70927      6.58780     -4.32372         0.390005     -0.243969     -0.358649
Mn	      8.98965      2.15010     -2.20437        -0.274204      0.595707     -1.538895
Mn	     11.28215      4.36375     -6.50134        -0.267206      0.234107      0.090653
O	      4.66678     -0.21967     -2.19304         0.571340      0.511956     -0.201490
O	      6.75486      1.92492     -6.54395         0.375077      1.019673      0.306582
O	      9.21868     -2.39345     -4.41495        -0.391511      1.915799     -0.103800
O	     11.45917     -0.28634     -8.66617        -1.220993      0.567288      0.546336
O	      6.58953      4.23774     -0.14593         0.046473     -0.080993     -0.467900
O	      9.08880      6.40779     -4.28587         0.119089     -0.517098      0.000353
O	     11.38854      1.97034     -2.26190        -0.897288      0.999933     -0.354657
O	     13.62403      4.34736     -6.49340        -0.988454      0.212096      0.177453
O	      6.63308      1.96840     -2.06493         0.100628     -0.171069     -0.581911
O	      8.93585      4.28220     -6.34833         0.110112     -0.403572      0.637351
O	     11.33655     -0.21675     -4.31404        -1.119134      0.615124      0.080816
O	     13.41618      1.84458     -8.71545        -0.842889      0.430626      0.604000
O	      8.88669      6.56067      0.16003        -0.483911     -0.418541     -2.378918
O	     11.09726      8.61449     -4.18194        -0.000853     -0.708848      0.206099
O	     13.36564      4.18456     -2.04761        -0.969267      0.532655     -0.830710
O	     15.65123      6.42085     -6.36368        -1.541893     -0.540301      0.469170
O	      4.58163      2.31605     -4.46982         0.239862      0.453792     -0.056000
O	      6.79448      4.41694     -8.81306         0.747601      0.163686      2.593490
O	      9.06091     -0.06012     -6.67647         0.364212      0.925048      0.215372
O	     11.34853      2.22374    -10.99550        -0.192361      0.123645      1.319907
O	      6.61115      6.71786     -2.20363         0.558205      0.177999     -0.163748
O	      9.02952      8.99309     -6.46203        -0.288639      0.169378      0.722995
O	     11.31500      4.53256     -4.45268        -0.049341      0.421318     -0.432790
O	     13.51083      6.55663     -8.82968        -0.354796     -0.195311      0.890847
O	      4.32363      2.15332     -0.02319        -0.275690      0.273728     -0.397156
O	      6.55898      4.53010     -4.25446        -0.055099      0.385416      0.090753
O	      8.85897      0.09353     -2.23018         0.012464      0.723310     -0.322312
O	     11.35843      2.26320     -6.37152         0.402514      0.315533     -0.005859
O	      6.48854      6.78656      2.15024        -0.122064      0.225008     -0.414471
O	      8.72778      8.89475     -2.10188        -0.542333     -0.656274     -0.294370
O	     11.19189      4.57680      0.02648        -0.453185     -0.754478     -0.931024
O	     13.28143      6.72086     -4.32443        -0.225269      0.062568     -0.340408
O	      2.33625      2.04160     -2.28552         0.234947      0.943622      0.047157
O	      4.55565      4.24980     -6.63631         0.836944     -0.285450      0.148827
O	      6.78602     -0.19577     -4.48599         0.197778      0.356178      0.391401
O	      9.05713      1.95341     -8.79612         0.342364      0.570481      0.327347
O	      6.69460      8.62840     -4.40746         0.290821     -0.642920     -0.414156
O	      8.99226      4.22229     -2.27041        -0.107964     -0.416689     -0.443283
O	     11.20825      6.43787     -6.64316         0.193844     -0.672977     -0.369028
O	      6.74170      6.70846     -6.36924        -0.079340      0.403043      0.321446
O	      8.95563      2.27871     -4.24701         0.145008      0.405405      0.459518
O	     11.23827      4.39945     -8.53462        -0.026955      0.327596      0.622327
O	      6.60241      8.95795      0.16971        -0.125033     -0.745789     -0.243709
O	      8.88000     11.08820     -4.13963         0.006192     -0.420610     -0.273626
O	     11.16082      6.69691     -2.03120        -0.155228     -0.308158     -0.473879
O	     13.38923      8.88446     -6.38060        -0.225312     -1.115742      0.233188
