# total energy = -600.95572230 eV
 
CRYSTAL
PRIMVEC
4.414361 8.816157 4.368816 
8.962803 -4.475978 -4.377989 
4.475119 4.314415 -8.615376 
PRIMCOORD
94 1
Li	      4.67470      1.88222     -2.25141         0.268746      0.125473      0.026985
Li	      7.00317      4.39246     -6.72481         0.222261     -0.187437      0.706760
Li	      9.25005     -0.17582     -4.52639        -0.437981      0.385552     -0.002397
Li	     11.66247      2.12505     -9.00441         0.142203      0.246186      0.213833
Li	      7.12776      6.79537      0.00268        -0.029851      0.075504     -0.049173
Li	      9.23239      8.98927     -4.42382         0.188285     -0.621672     -0.033596
Li	     11.58018      4.53932     -2.20032        -0.358946      0.290071     -0.251133
Li	     13.88333      6.68583     -6.72666        -0.410876     -0.134894      0.065054
Li	      4.81498      0.12510     -4.35601         0.103564      0.037471     -0.262879
Li	      6.94076      2.17161     -8.90188         0.244676     -0.372871      0.314293
Li	      9.24986     -2.24756     -6.72287        -0.250659      0.730174     -0.108863
Li	     11.75599      0.17175    -11.09469        -0.119078     -0.244355      0.128766
Li	      7.13508      4.52918     -2.23774         0.330732      0.104896     -0.222699
Li	      9.22016      6.55161     -6.67328         0.059547     -0.482441      0.205293
Li	     11.34435      2.16502     -4.47273        -0.389912      0.371067     -0.452226
Li	     13.89137      4.60735     -8.95381        -0.255264     -0.000578      0.336493
Li	      6.89887      2.15510     -4.50827        -0.055051      0.208854      0.118587
Li	      9.22767      4.47274     -8.90033         0.132354      0.076451      0.477475
Li	     11.35165     -0.09793     -6.71189        -0.387067     -0.041094      0.220233
Li	     13.87859      2.16898    -11.20306        -0.595951      0.037485      1.075404
Li	      9.22844      6.86935     -2.18381         0.145053     -0.000325     -0.431874
Li	     11.44863      9.03534     -6.62241        -0.475544     -0.177374      0.233279
Li	     13.80438      4.81137     -4.45803        -0.802581     -0.142062     -0.121901
Li	     16.10725      6.76689     -8.90279        -0.825112      0.073226      0.641888
Mn	      9.22350      4.48022     -4.44090         0.163194      0.092834     -0.134995
Mn	      7.02008      2.35137     -0.31815        -0.681465     -0.817236      2.988204
Mn	      4.87660      6.76373     -2.42378        -1.872105      0.666767     -0.199207
Mn	      2.45105      4.69430      1.97103         0.153439     -3.555600      1.313445
Mn	      7.07521      0.20531     -6.55790        -0.075143     -4.268684     -0.786492
Mn	      4.79259     -2.17470     -2.54945        -0.121715      2.303022      7.921412
Mn	      2.32197      2.22822     -4.43216         2.217268      2.076199      0.283032
Mn	      0.58672      0.30833     -0.28350        -4.644582     -6.178465      4.093433
Mn	      2.33717      2.21235     -0.00406         5.474887      1.840869     -0.094696
Mn	      4.63824      4.48414     -4.59568         3.477753     -1.743454     -0.961356
Mn	      6.96841     -0.07842     -2.26058         0.580307      0.599852     -0.727378
Mn	      9.25988      2.18426     -6.72385         0.293647      0.818292      0.525150
Mn	      4.56415      6.84153      2.41703         3.582126     -1.203035     -2.196169
Mn	      6.86525      9.11434     -2.17469         2.281948     -1.660963     -0.937949
Mn	      9.21910      4.50987      0.01382         0.226767     -0.632726     -1.476963
Mn	     11.51125      6.77206     -4.44940        -0.514733      0.113512      0.033309
Mn	      2.46653      0.28157     -2.11512         1.118005     -3.263756     -8.401021
Mn	      4.67147      2.19606     -6.71876         1.348288      2.539975      1.461800
Mn	      6.98959     -2.32711     -4.52109         0.429295      4.046936     -1.611404
Mn	      9.42928      0.20299     -8.83066        -1.161004     -2.560623     -0.839228
Mn	      4.64023      4.40563      0.09149         1.822181     -1.218099     -0.786846
Mn	      6.90805      6.78299     -4.45182         0.772381     -0.479082     -0.580253
Mn	      9.25600      2.21382     -2.26967        -0.500688      0.851870     -2.724171
Mn	     11.61642      4.49303     -6.69397        -0.411654      0.303326      0.192081
O	      4.80504     -0.22618     -2.25802         0.704877      0.880536     -0.388711
O	      6.95500      1.98196     -6.73784        -0.051289      2.371086      0.437547
O	      9.49181     -2.46436     -4.54575        -1.420034      4.838056     -0.102047
O	     11.79868     -0.29483     -8.92294        -2.545933      0.928523      0.834794
O	      6.78476      4.36330     -0.15025         0.115656     -0.069894     -0.773501
O	      9.35808      6.59764     -4.41286        -0.006381     -0.775820      0.027975
O	     11.72596      2.02872     -2.32891        -1.544292      2.077357     -0.571864
O	     14.02767      4.47616     -6.68579        -1.908856      0.487722      0.282905
O	      6.82960      2.02672     -2.12611         0.087429     -0.023325     -1.246611
O	      9.20060      4.40907     -6.53642         0.102145     -0.800147      0.885494
O	      2.70963      4.25280     -0.06387        -1.803367      1.269029     -0.002669
O	     13.81368      1.89922     -8.97367        -1.469677      0.675699      0.940513
O	      9.14998      6.75505      0.16477        -0.866376     -0.449609     -6.343933
O	     11.42605      8.86973     -4.30584        -0.042880     -0.868818      0.353130
O	     13.76164      4.30856     -2.10827        -1.746494      0.833312     -1.736159
O	     16.11495      6.61108     -6.55224        -2.027621     -0.769314      0.230944
O	      4.71737      2.38468     -4.60224         0.393745      0.577875      0.035992
O	      2.52067      0.23340     -0.45880         1.931165     -0.092233      6.630293
O	      9.32937     -0.06190     -6.87428         0.473223      1.721500      0.373701
O	      7.20965     -2.02480     -2.70590        -0.213022      0.102652      2.286172
O	      6.80704      6.91690     -2.26892         1.101957      0.333865      0.179520
O	      4.82193      4.94512      1.96188        -0.360268      0.370367      1.089456
O	     11.65024      4.66684     -4.58460        -0.040914      0.489892     -0.588637
O	      9.43601      2.43648     -0.47590        -0.483852     -0.151261      1.846921
O	      4.45173      2.21712     -0.02388        -0.349029      0.370942     -0.678937
O	      6.75331      4.66432     -4.38052        -0.040930      0.260101      0.189989
O	      9.12144      0.09630     -2.29625         0.194060      1.218191     -0.569986
O	     11.69495      2.33025     -6.56029         0.554647      0.389677     -0.037213
O	      6.68078      6.98763      2.21396        -0.184406      0.197552     -0.869402
O	      8.98635      9.15829     -2.16415        -0.718881     -0.917341     -0.463981
O	     11.52347      4.71240      0.02726        -0.801315     -1.806732     -1.541300
O	     13.67493      6.91999     -4.45255        -0.159190     -0.019806     -0.596157
O	      2.40548      2.10210     -2.35324         0.382064      1.934671      0.443665
O	      4.69062      4.37571     -6.83293         1.541698     -0.624532      0.386210
O	      6.98707     -0.20157     -4.61890         0.211282      0.831424      0.488668
O	      9.32547      2.01129     -9.05672         0.503883      1.281026      0.826160
O	      6.89295      8.88404     -4.53805         0.569962     -0.740577     -0.563740
O	      9.25869      4.34739     -2.33768        -0.173089     -0.584393     -0.595787
O	     11.54033      6.62861     -6.83998         0.350854     -0.968213     -0.543936
O	      6.94145      6.90722     -6.55795        -0.227091      0.532742      0.043479
O	      9.22096      2.34622     -4.37284         0.201116      0.550757      0.561229
O	     11.57124      4.52980     -8.78749        -0.080807      0.452536      0.923403
O	      6.79803      9.22336      0.17474        -0.188142     -1.552939     -0.554836
O	      9.14310     11.41672     -4.26228         0.161503     -0.814974     -0.237919
O	     11.49150      6.89533     -2.09139        -0.229763     -0.597188     -0.764654
O	     13.78593      9.14768     -6.56965        -0.299310     -2.379016      0.292479
