# total energy = -595.77312255 eV
 
CRYSTAL
PRIMVEC
4.435687 8.858747 4.389921 
9.006101 -4.497602 -4.399139 
4.496738 4.335258 -8.656996 
PRIMCOORD
94 1
Li	      4.71997      1.90046     -2.27321         0.314763      0.139603      0.051802
Li	      7.07100      4.43501     -6.78993         0.257094     -0.185141      0.800871
Li	      9.33964     -0.17752     -4.57023        -0.487125      0.443918      0.004063
Li	     11.77541      2.14563     -9.09162         0.164598      0.285864      0.237545
Li	      7.19679      6.86118      0.00269        -0.059423      0.079763     -0.067310
Li	      9.32180      9.07632     -4.46668         0.205840     -0.722513     -0.043352
Li	     11.69233      4.58329     -2.22163        -0.412547      0.324435     -0.307176
Li	     14.01780      6.75058     -6.79181        -0.501389     -0.148011      0.061914
Li	      4.88304      0.16910     -4.37699         0.116181      0.031243     -0.267659
Li	      7.00799      2.19265     -8.98810         0.306721     -0.439017      0.421925
Li	      9.33945     -2.26934     -6.78798        -0.290763      0.820383     -0.121161
Li	     11.89128      0.21621    -11.18094        -0.224769     -0.239052      0.190554
Li	      7.20419      4.57304     -2.25941         0.362288      0.114634     -0.252962
Li	      9.30946      6.61507     -6.73792         0.062705     -0.542089      0.238952
Li	     11.45422      2.18598     -4.51605        -0.422370      0.415857     -0.523015
Li	     14.02591      4.65197     -9.04053        -0.314184     -0.012295      0.377573
Li	      6.96568      2.17597     -4.55193        -0.041203      0.240457      0.171327
Li	      9.31704      4.51605     -8.98653         0.169557      0.089471      0.541077
Li	     11.46159     -0.09888     -6.77690        -0.429264     -0.048232      0.265236
Li	     14.01299      2.18999    -11.31155        -0.725371      0.067044      1.284402
Li	      9.31782      6.93588     -2.20496         0.159687     -0.017541     -0.488041
Li	     11.55951      9.12285     -6.68655        -0.538917     -0.213594      0.262522
Li	     13.93808      4.85797     -4.50121        -0.955121     -0.201543     -0.134185
Li	     16.26324      6.83244     -8.98901        -1.029123      0.060688      0.773453
Mn	      9.31283      4.52360     -4.48391         0.196287      0.099558     -0.148051
Mn	      7.10979      2.39510     -0.36304        -0.718336     -0.880017      3.374018
Mn	      4.96734      6.80750     -2.46851        -2.162378      0.679725     -0.203038
Mn	      2.49651      4.76071      1.94829         0.051820     -4.133199      1.407361
Mn	      7.16517      0.25010     -6.60021        -0.004167     -5.019578     -0.810150
Mn	      4.86073     -2.17482     -2.61595        -0.074607      2.681702     10.065176
Mn	      2.34445      2.24980     -4.47508         2.501052      2.477934      0.354190
Mn	      0.67906      0.35333     -0.32811        -5.378229     -7.656948      4.536677
Mn	      2.35980      2.23377     -0.00411         6.373656      2.329339      0.052016
Mn	      4.68316      4.52756     -4.64019         4.039927     -1.795194     -1.018088
Mn	      7.03590     -0.07918     -2.28248         0.650407      0.652451     -0.762144
Mn	      9.34955      2.20541     -6.78897         0.390910      0.921444      0.592888
Mn	      4.60835      6.90779      2.44044         4.062737     -1.348653     -2.435951
Mn	      6.93175      9.20261     -2.19575         2.662978     -1.934109     -1.032497
Mn	      9.30839      4.55355      0.01395         0.221240     -0.801219     -1.704200
Mn	     11.62274      6.83766     -4.49249        -0.596068      0.088429      0.027280
Mn	      2.51185      0.32709     -2.11440         1.396818     -3.621242    -10.783936
Mn	      4.71672      2.21733     -6.78383         1.490656      2.787987      1.572561
Mn	      7.05728     -2.34965     -4.56488         0.449846      4.640172     -1.861652
Mn	      9.54203      0.24776     -8.89497        -1.243160     -2.962435     -0.900366
Mn	      4.68518      4.44831      0.09237         2.061511     -1.376105     -0.846334
Mn	      6.97495      6.84868     -4.49494         0.898271     -0.564149     -0.656792
Mn	      9.34564      2.23525     -2.29166        -0.604995      0.889000     -3.139437
Mn	     11.72892      4.53655     -6.75880        -0.457802      0.301840      0.214826
O	      4.85158     -0.22838     -2.27988         0.669483      0.991362     -0.453062
O	      7.02236      2.00115     -6.80309        -0.354401      2.919107      0.444091
O	      9.58374     -2.48824     -4.58978        -2.018421      6.169122     -0.051747
O	     11.91296     -0.29768     -9.00935        -3.039640      1.017834      0.895770
O	      6.85048      4.40555     -0.15171         0.127417     -0.041372     -0.861301
O	      9.44871      6.66154     -4.45559        -0.092774     -0.820418      0.034741
O	     11.83952      2.04837     -2.35147        -1.714582      2.482721     -0.628587
O	     14.16353      4.51951     -6.75054        -2.266596      0.583679      0.302801
O	      6.89574      2.04635     -2.14669         0.053421      0.098850     -1.496877
O	      9.28971      4.45177     -6.59972         0.089627     -0.899467      0.940079
O	      2.77938      4.27226     -0.08574        -1.968654      1.531393     -0.046668
O	      4.94137      6.41522     -4.66144        -1.631871      0.741206      1.018117
O	      9.23860      6.82048      0.16636        -1.015937     -0.308012     -8.353251
O	     11.53671      8.95562     -4.34754        -0.067902     -0.895670      0.372421
O	      4.88882      8.84788      2.27044        -2.006285      0.893076     -2.058880
O	      7.26492     11.17271     -2.21655        -1.993113     -0.770643     -0.006942
O	      4.76306      2.40777     -4.64682         0.407564      0.572327      0.020584
O	      2.56681      0.25660     -0.50507         2.465832     -0.340854      8.661918
O	      9.41973     -0.06250     -6.94085         0.481188      1.954639      0.416102
O	      7.30120     -2.02346     -2.77393        -0.192753      0.065433      2.556389
O	      6.87296      6.98389     -2.29090         1.316981      0.386109      0.331873
O	      4.89035      5.01395      1.93906        -0.360287      0.440144      1.152342
O	     11.76307      4.71204     -4.62901        -0.036934      0.500509     -0.588096
O	      9.54913      2.48102     -0.52234        -0.485327     -0.112048      2.226746
O	      4.49485      2.23859     -0.02411        -0.335097      0.375559     -0.766393
O	      6.81871      4.70950     -4.42294        -0.033787      0.199065      0.228162
O	      9.20979      0.09723     -2.31850         0.306115      1.371549     -0.653549
O	     11.80822      2.35282     -6.62383         0.610612      0.384612     -0.052518
O	      6.74549      7.05530      2.23539        -0.227460      0.160285     -1.054041
O	      9.07339      9.24699     -2.18511        -0.764502     -1.091596     -0.484177
O	     11.63508      4.75805      0.02752        -0.867524     -2.273939     -1.723823
O	     13.80738      6.98701     -4.49567        -0.097299     -0.082004     -0.674781
O	      2.42878      2.12245     -2.37603         0.426430      2.302181      0.640542
O	      4.73606      4.41809     -6.89911         1.818586     -0.679613      0.456003
O	      7.05475     -0.20351     -4.66364         0.198331      1.017566      0.485279
O	      9.41579      2.03078     -9.14444         0.526678      1.564408      1.006333
O	      6.95971      8.97009     -4.58200         0.688335     -0.740046     -0.590495
O	      9.34836      4.38949     -2.36031        -0.194156     -0.615007     -0.627947
O	     11.65210      6.69281     -6.90623         0.406167     -1.018432     -0.574431
O	      7.00868      6.97412     -6.62146        -0.297143      0.547102     -0.080352
O	      9.31027      2.36895     -4.41519         0.213023      0.582139      0.573142
O	     11.68331      4.57368     -8.87259        -0.101695      0.474566      1.002131
O	      6.86387      9.31269      0.17644        -0.199317     -1.864568     -0.651842
O	      9.23165     11.52729     -4.30357         0.191531     -0.985287     -0.123270
O	     11.60280      6.96211     -2.11164        -0.233380     -0.708638     -0.853712
O	     13.91944      9.23629     -6.63327        -0.296723     -2.879992      0.318463
