# total energy = -19.33453359 eV
 
CRYSTAL
PRIMVEC
0.000418 2.022994 2.024085 
2.029772 -2.023427 0.000851 
4.080707 2.045520 -2.045769 
PRIMCOORD
4 1
Li	      2.00850     -1.99593     -0.00078        -0.050141     -0.068395      0.030804
Ni	      4.02953      0.01497     -0.01226         0.220035     -0.129755     -0.032705
O	      3.97539      1.95348      0.04826         0.311371      0.279702     -0.346690
O	      2.07427      0.07890     -0.07348        -0.481265     -0.081551      0.348591
