# total energy = -37.65635226 eV
 
CRYSTAL
PRIMVEC
0.000000 1.897581 1.897412 
4.149546 -0.000015 0.000013 
-0.000058 3.926239 -3.925969 
PRIMCOORD
8 1
Li	      0.00510      1.86070      1.79818        -0.193368     -0.245107      0.382024
Li	      2.00713      1.82693      0.00391         0.240048     -0.323847      0.227971
Ni	      0.00469      3.69933     -0.03871        -0.640344      1.316834      1.165470
Ni	      2.00685      3.77703     -1.94784         0.609757     -0.785483     -1.679546
O	      0.00471      1.94498     -0.11513        -0.277316     -2.483487      1.002533
O	      2.00680      3.83579     -0.17565         0.730894     -0.936112      2.248134
O	      0.00464      3.64018     -1.81117        -0.719972      0.857070     -2.096891
O	      2.00690      5.53151     -1.87121         0.250301      2.600133     -1.249696
