# total energy = -38.38371564 eV
 
CRYSTAL
PRIMVEC
0.000000 2.035229 2.035048 
4.450550 -0.000016 0.000014 
-0.000062 4.211043 -4.210755 
PRIMCOORD
8 1
Li	      0.00587      0.10521      0.03347         0.087504      0.153497     -0.204595
Li	      2.30888      2.10159      0.00450        -0.071023      0.185785     -0.108566
Ni	      0.00539      2.22025     -2.07958         0.129600     -0.551402     -0.337859
Ni	      2.30856      4.34486     -2.24067        -0.153542      0.266711      0.638177
O	      0.00542      2.23738     -0.13244         0.090068      0.835125     -0.312495
O	      2.30851      2.37723     -2.23710        -0.234183      0.222553     -0.682094
O	      0.00534      4.18744     -2.08346         0.253593     -0.097644      0.601030
O	      2.30868      0.11684      0.02318        -0.102017     -1.014624      0.406400
