# total energy = -38.26825665 eV
 
CRYSTAL
PRIMVEC
0.000000 2.045061 2.044880 
4.472050 -0.000016 0.000014 
-0.000062 4.231387 -4.231097 
PRIMCOORD
8 1
Li	      0.00593      0.11611      0.04368         0.095387      0.165922     -0.224832
Li	      2.33124      2.12194      0.00454        -0.071951      0.214440     -0.117227
Ni	      0.00545      2.25164     -2.08984         0.118011     -0.586793     -0.365828
Ni	      2.33092      4.38695     -2.26238        -0.151376      0.282648      0.680557
O	      0.00547      2.25905     -0.13372         0.087311      0.897680     -0.339523
O	      2.33087      2.41013     -2.24889        -0.242568      0.232818     -0.720716
O	      0.00539      4.22799     -2.10364         0.260305     -0.091466      0.639801
O	      2.33104      0.14829      0.01284        -0.095119     -1.115248      0.447768
