# total energy = -57.65088240 eV
 
CRYSTAL
PRIMVEC
0.000039 1.930344 1.930277 
6.318080 1.960352 -0.029865 
0.000108 3.977682 -3.977435 
PRIMCOORD
12 1
Li	      6.17534      1.94891     -0.06129         0.177465     -0.053510      0.032741
Li	      2.06373      1.91644     -0.02831         0.014597     -0.172449      0.132711
Li	      4.14363      3.80429     -0.02553         0.094913     -0.025090      0.102415
Ni	      0.01722      3.81716     -0.03703        -0.403941      0.460062      0.680571
Ni	      2.06378      3.86584     -1.97689        -0.181186     -0.385685     -0.755284
Ni	      4.11044      5.80667     -2.02619         0.328569      1.747862     -0.806152
O	      0.00578      2.00564     -0.11645        -0.209237     -1.230385      0.612331
O	      2.06053      3.93712     -0.15675         0.369114     -0.530797      1.166454
O	      4.11878      3.97835     -2.09011         0.558508     -0.934867      0.370760
O	      0.00888      3.75266     -1.86492        -0.667791      0.544328     -1.111051
O	      2.06707      5.68655     -1.90639        -0.272245      1.212551     -0.603341
O	      4.12141      1.82832      0.06066         0.191235     -0.632019      0.177845
