# total energy = -58.21051307 eV
 
CRYSTAL
PRIMVEC
0.000040 1.979587 1.979518 
6.479256 2.010361 -0.030627 
0.000111 4.079154 -4.078900 
PRIMCOORD
12 1
Li	      0.01517      0.03925     -0.03382        -0.050681      0.035401     -0.027754
Li	      2.17037      2.01547     -0.02977        -0.003030      0.035759     -0.025908
Li	      4.35774      4.00086     -0.02685        -0.007577     -0.008694      0.004391
Ni	      0.01807      2.03481     -2.01846         0.025016     -0.145680     -0.050682
Ni	      2.17041      4.06559     -2.07903         0.041661      0.063290      0.120902
Ni	      4.32283      6.10670     -2.13089        -0.006650     -0.350057      0.137094
O	      0.00608      2.10928     -0.12247         0.034445      0.053982      0.045080
O	      2.16700      4.14055     -0.16485         0.015991     -0.058929     -0.043356
O	      4.33160      4.18392     -2.19811        -0.087557      0.025726      0.079072
O	      0.00934      3.94656     -1.96128         0.109566      0.059614      0.042353
O	      2.17388      5.98039     -2.00490        -0.033516     -0.065868     -0.039208
O	      4.33437      1.92278      0.06379        -0.037667      0.355455     -0.241984
