# total energy = -57.69526021 eV
 
CRYSTAL
PRIMVEC
1.984875 4.049295 1.986625 
3.977048 -2.029758 -1.984216 
1.981581 2.032431 -3.984993 
PRIMCOORD
12 1
Li	      0.01027      0.00162     -0.01156        -0.259917     -0.067766      0.141468
Li	      1.94596      1.98425     -0.00159        -0.281630     -0.004989      0.193398
Li	      3.88177      3.96883      0.00713        -0.004445      0.079259      0.229823
Ni	      3.88312      1.98533     -1.94280        -0.371427     -0.224245      0.189316
Ni	      5.83815      3.96941     -1.95371         0.663908      1.158904      0.057116
Ni	      5.84819      1.98401     -3.91133         1.144124     -0.120850     -1.306775
O	      3.87636      0.15829     -1.93862        -0.033900     -1.036836      0.048215
O	      5.78264      2.09329     -1.99710         0.696611     -0.905704      0.728317
O	      3.94863      1.87638     -3.85649        -0.731751      0.180077     -0.657568
O	      3.91320      1.81916     -0.01033         0.042566      0.559205      0.467611
O	      1.96632      2.14644     -1.97473        -0.611515     -0.523212     -0.030916
O	      3.86738      3.81229     -1.93470        -0.252623      0.906159     -0.060006
