# total energy = -57.90331607 eV
 
CRYSTAL
PRIMVEC
1.995002 4.069954 1.996761 
3.997339 -2.040114 -1.994339 
1.991692 2.042801 -4.005325 
PRIMCOORD
12 1
Li	      0.01037      0.00164     -0.01168        -0.177760     -0.054953      0.092782
Li	      1.96587      2.00455     -0.00161        -0.201094     -0.003033      0.136877
Li	      3.92148      4.00944      0.00720        -0.015280      0.055365      0.175235
Ni	      3.92285      2.00564     -1.96267        -0.290666     -0.155073      0.160951
Ni	      5.89787      4.01002     -1.97370         0.478304      0.824201      0.035678
Ni	      5.90802      2.00431     -3.95135         0.837230     -0.088430     -0.956592
O	      3.91601      0.15991     -1.95845        -0.026059     -0.762025      0.028855
O	      5.84180      2.11471     -2.01753         0.539406     -0.658438      0.539879
O	      3.98902      1.89558     -3.89594        -0.553139      0.148878     -0.515639
O	      3.95323      1.83777     -0.01044         0.026397      0.449951      0.358149
O	      1.98643      2.16839     -1.99494        -0.460095     -0.419548     -0.018795
O	      3.90694      3.85129     -1.95450        -0.157243      0.663106     -0.037380
