# total energy = -58.22621173 eV
 
CRYSTAL
PRIMVEC
2.035510 4.152593 2.037304 
4.078504 -2.081538 -2.034834 
2.032132 2.084279 -4.086651 
PRIMCOORD
12 1
Li	      0.01080      0.00170     -0.01215         0.087731      0.016581     -0.060100
Li	      2.04651      2.08678     -0.00167         0.056710     -0.000369     -0.038783
Li	      2.04683      0.02131     -2.02981        -0.029735     -0.015873     -0.014806
Ni	      4.08377      2.08791     -2.04319        -0.009462      0.053283      0.052095
Ni	      4.10430      0.02193     -4.09197        -0.142710     -0.235629     -0.006182
Ni	      6.15038      2.08653     -4.11344        -0.131414      0.020210      0.170524
O	      4.07665      0.16647     -2.03879         0.015266     -0.023344     -0.053007
O	      6.08143      2.20145     -2.10029         0.002452      0.091287      0.008993
O	      4.15266      1.97333     -4.05576        -0.008243      0.047901      0.001294
O	      4.11540      1.91315     -0.01087        -0.015870      0.091365     -0.066490
O	      2.06792      2.25735     -2.07677         0.095423     -0.092006      0.005712
O	      4.06721      4.00928     -2.03467         0.079851      0.046594      0.000750
