# total energy = -74.45164973 eV
 
CRYSTAL
PRIMVEC
1.963734 3.933517 1.937942 
3.943148 -1.972430 -1.942300 
-0.003037 3.940407 -3.886431 
PRIMCOORD
16 1
Li	      0.01946      0.03172     -0.04090        -0.506914     -0.237879      0.104977
Li	      1.85332      1.89569      0.00753        -0.220074     -0.199819      0.572793
Li	      1.87937      0.02756     -1.80617        -0.266736     -0.552141      0.180866
Li	      1.90006      5.60662      0.00050        -0.076389      0.743418      0.516083
Ni	      3.80038      1.89726     -1.84888         1.912460     -0.582724      0.603597
Ni	      1.87635      3.77043     -1.87272        -2.075118     -0.189457     -0.049661
Ni	      3.76928      5.66766     -1.88701         1.284407      2.189709     -0.439706
Ni	      3.78076      3.79034     -3.74722         1.362180      2.417710     -3.499331
O	      1.97261      1.99926     -1.92078        -1.721670     -2.523516      0.795698
O	      3.77964      3.75655     -1.97295         2.049527     -0.251161      1.931267
O	      1.88933      3.72327     -3.63825        -1.654101      0.657046     -2.589809
O	      3.82567      1.74660      0.02400         0.570083     -0.108492      1.279119
O	      3.73954      0.10600     -1.74035         0.418272     -2.281555     -0.548380
O	      1.80724      3.77034     -0.11720        -0.038670      0.256675      3.050489
O	      3.74222      2.01793     -3.72186         0.353802     -2.158237     -1.665043
O	      1.93952      5.51285     -1.86955        -1.391060      2.820423     -0.242961
