# total energy = -75.19215986 eV
 
CRYSTAL
PRIMVEC
1.973962 3.954005 1.948036 
3.963685 -1.982703 -1.952416 
-0.003053 3.960930 -3.906673 
PRIMCOORD
16 1
Li	      0.01966      0.03205     -0.04133        -0.436101     -0.202718      0.088523
Li	      1.87268      1.91548      0.00760        -0.178065     -0.161731      0.476870
Li	      1.89899      0.02785     -1.82504        -0.220750     -0.460220      0.159276
Li	      1.91990      5.66518      0.00051        -0.062566      0.621487      0.440735
Ni	      3.84007      1.91708     -1.86819         1.594049     -0.482010      0.513751
Ni	      1.89595      3.80981     -1.89227        -1.726060     -0.164752     -0.052078
Ni	      3.80864      5.72685     -1.90672         1.048159      1.853103     -0.386514
Ni	      3.82025      3.82993     -3.78636         1.119746      2.028700     -2.956636
O	      1.99322      2.02014     -1.94084        -1.447746     -2.122053      0.695654
O	      3.81911      3.79578     -1.99355         1.726986     -0.213798      1.603588
O	      1.90907      3.76215     -3.67625        -1.393478      0.591090     -2.143240
O	      3.86562      1.76484      0.02425         0.483188     -0.106430      1.120720
O	      3.77860      0.10711     -1.75852         0.346904     -1.939615     -0.467794
O	      1.82612      3.80972     -0.11842        -0.021899      0.218929      2.544678
O	      3.78130      2.03901     -3.76072         0.283010     -1.810256     -1.446495
O	      1.95977      5.57043     -1.88908        -1.115378      2.350274     -0.191038
