# total energy = -91.53000258 eV
 
CRYSTAL
PRIMVEC
0.000052 2.086498 2.086080 
4.115919 -4.197675 4.196992 
4.185556 4.230932 -4.230033 
PRIMCOORD
16 1
Li	      2.08676      2.07536      0.00970         0.002667      0.010143     -0.010324
Li	      2.21605      0.02192      2.06267         0.027258      0.000727     -0.001328
Li	      3.96339      1.97614      2.19401        -0.057048     -0.048830      0.048581
Li	      4.11585      0.13163      4.04024        -0.023551      0.046228     -0.047650
Mn	      0.10724      2.10964      2.06127         0.173339      0.045199     -0.045255
Mn	      4.16669      4.18430     -0.01242        -0.010843     -0.057185      0.057816
Ni	      6.22719      2.11777     -0.03250         0.009930      0.000823     -0.000888
Ni	      6.12264      0.01493      2.06991        -0.060197      0.016646     -0.016309
O	      6.09376      4.14532      0.02630        -0.061788      0.105391     -0.106303
O	      6.40185      2.12230      2.04896         0.082164     -0.018717      0.019276
O	      4.12150     -2.24070      4.32437         0.094177     -0.084050      0.086883
O	      2.25893      4.27472     -0.10279         0.093237     -0.115846      0.116570
O	      4.17902      4.24176     -2.15635         0.033619      0.030615     -0.030735
O	      1.92676      2.08978      2.08107        -0.137818      0.008230     -0.009673
O	      4.14632      2.24208     -0.15620        -0.089849      0.059077     -0.059225
O	      4.16992      0.01235      2.07239        -0.075297      0.001548     -0.001436
