# total energy = -77.33731084 eV
 
CRYSTAL
PRIMVEC
-2.084253 4.138132 -2.084359 
2.046238 4.099493 2.046428 
2.093314 0.019260 -6.224272 
PRIMCOORD
16 1
Li	      0.05303      0.05988     -0.05161        -0.106412     -0.024236     -0.000597
Li	     -0.06487      6.28010     -2.08887         0.088778     -0.051247     -0.083718
Li	     -0.02531      4.19728     -4.20432         0.143054     -0.001561      0.146046
Li	      0.03797      4.17885     -0.07520         0.140416     -0.001350     -0.153681
Ni	      2.10312      6.27850     -4.25614        -0.137853     -0.386730      0.028306
Ni	     -0.00552      2.09796     -2.10879         0.401197      0.677997     -0.331465
Ni	      2.08406      4.17858     -2.12130        -0.665246     -0.095344     -0.366397
Ni	      2.15462      2.09809     -4.26897        -0.092610      0.380211      0.158496
O	      2.10037      2.25136     -2.15882         0.029412      0.363407     -0.144837
O	      0.13768      4.06467     -2.13687         0.361369     -0.297608      0.063174
O	      0.07549      2.00665     -4.18379         0.106247     -0.383903     -0.016177
O	     -0.02462      2.09150     -0.12461        -0.151701      0.221190      0.371493
O	      2.09944      4.29217     -0.17494        -0.103922     -0.152878     -0.466717
O	     -0.15932      4.21468     -6.30016         0.339188     -0.014418      0.332932
O	      0.02496      6.26626     -0.07459        -0.229913     -0.241830      0.288607
O	      2.07020      4.18167     -4.07032        -0.122003      0.008302      0.174536
