# total energy = -76.77445700 eV
 
CRYSTAL
PRIMVEC
-2.115055 4.199287 -2.115162 
2.076478 4.160077 2.076671 
2.124250 0.019545 -6.316256 
PRIMCOORD
16 1
Li	      0.11669      0.12343     -0.11581        -0.197287     -0.052454      0.015432
Li	     -0.06680      6.46709     -2.15107         0.170025     -0.071335     -0.202734
Li	     -0.02606      4.32225     -4.32950         0.239940     -0.007021      0.254438
Li	      0.03910      4.30327     -0.07744         0.247458     -0.005637     -0.255894
Ni	      2.16573      6.46545     -4.38287        -0.224112     -0.650005      0.024258
Ni	     -0.00568      2.16043     -2.17158         0.698931      1.156889     -0.709688
Ni	      2.14611      4.30300     -2.18446        -1.133047     -0.155601     -0.618477
Ni	      2.21877      2.16056     -4.39608        -0.231575      0.640574      0.359147
O	      2.16291      2.31839     -2.22310         0.098203      0.565705     -0.341253
O	      0.14178      4.18569     -2.20050         0.629739     -0.603217      0.115963
O	      0.10843      2.12788     -4.27767         0.286747     -0.614010     -0.016328
O	      0.00603      2.15406     -0.22166        -0.399073      0.407408      0.736534
O	      2.16196      4.41997     -0.18015        -0.187355     -0.151276     -0.790512
O	     -0.16406      4.34017     -6.48775         0.665343     -0.021781      0.583315
O	      0.05710      6.45313     -0.17016        -0.413473     -0.440638      0.648374
O	      2.13184      4.30618     -4.19152        -0.250462      0.002399      0.197424
