# total energy = -76.51229511 eV
 
CRYSTAL
PRIMVEC
-2.125322 4.219672 -2.125430 
2.086558 4.180272 2.086752 
2.134562 0.019640 -6.346917 
PRIMCOORD
16 1
Li	      0.13832      0.14502     -0.13761        -0.219583     -0.057454      0.016015
Li	     -0.06745      6.53003     -2.17201         0.194757     -0.077876     -0.241531
Li	     -0.02632      4.36432     -4.37163         0.260795     -0.006874      0.279499
Li	      0.03948      4.34515     -0.07819         0.277343     -0.004409     -0.280496
Ni	      2.18681      6.52836     -4.42553        -0.256179     -0.713361      0.023025
Ni	     -0.00574      2.18146     -2.19271         0.774135      1.277298     -0.842169
Ni	      2.16700      4.34488     -2.20573        -1.258234     -0.166943     -0.680843
Ni	      2.24036      2.18158     -4.43886        -0.269080      0.703615      0.418593
O	      2.18396      2.34095     -2.24474         0.134524      0.607458     -0.393765
O	      0.14316      4.22643     -2.22192         0.702205     -0.675430      0.134051
O	      0.11961      2.16888     -4.30918         0.342363     -0.660278     -0.017408
O	      0.01645      2.17512     -0.25463        -0.473427      0.460576      0.866251
O	      2.18300      4.46299     -0.18191        -0.211347     -0.157324     -0.879913
O	     -0.16566      4.38241     -6.55089         0.769079     -0.020826      0.650196
O	      0.06802      6.51603     -0.20263        -0.475712     -0.506250      0.757840
O	      2.15259      4.34809     -4.23230        -0.291641     -0.001921      0.190653
