# total energy = -75.44706193 eV
 
CRYSTAL
PRIMVEC
-0.000083 1.974657 1.973327 
7.826041 -0.000191 0.000011 
0.000017 4.001878 -4.000342 
PRIMCOORD
16 1
Li	      0.00233      0.13635     -0.05205        -0.232859     -0.343694      0.230202
Li	      1.89235      1.94148      0.00757         0.090602     -0.178565      0.125085
Li	      3.77808      1.87159     -1.83298         0.050905     -0.070446     -0.171630
Li	      5.66383      1.94109      0.00812         0.536370     -0.085800      0.030290
Ni	      5.66772      3.83290     -1.95975         1.329541     -0.767610     -0.641948
Ni	      3.77802      0.01532     -0.00947         0.002422     -1.817732      0.971660
Ni	      0.00201      3.81910     -0.01722        -2.852196      1.320288      0.509118
Ni	      1.88834      3.83304     -1.95940         0.423585     -0.537767     -1.016399
O	      3.77811      1.89862      0.13949         0.018239      0.909632     -0.587951
O	      5.75907      3.89283     -0.11795         0.740103     -0.117587      1.304006
O	      3.77797      3.82659     -2.07524        -0.624949      0.031178     -0.181847
O	      5.57353      5.68330     -1.89145         1.768865      1.638591     -0.764685
O	      0.00171      2.06505     -0.03465        -0.632671     -2.046208      0.701732
O	      1.79685      3.89367     -0.11759         1.962653     -0.377984      1.246134
O	      0.00206      3.70433     -1.97646        -1.170368      0.588343     -0.980898
O	      1.98253      5.68258     -1.89110        -1.410241      1.855362     -0.772870
