# total energy = -75.99310836 eV
 
CRYSTAL
PRIMVEC
-0.000083 1.984888 1.983551 
7.866590 -0.000192 0.000011 
0.000017 4.022613 -4.021069 
PRIMCOORD
16 1
Li	      0.00235      0.13776     -0.05259        -0.194283     -0.279994      0.187838
Li	      1.91201      1.96164      0.00765         0.076381     -0.143748      0.102585
Li	      3.81733      1.89104     -1.85202         0.042202     -0.050072     -0.136505
Li	      5.72267      1.96126      0.00820         0.451035     -0.062853      0.022359
Ni	      5.72661      3.87272     -1.98011         1.109787     -0.619756     -0.501934
Ni	      3.81728      0.01548     -0.00957         0.001358     -1.533762      0.850079
Ni	      0.00203      3.85878     -0.01741        -2.376618      1.056916      0.403811
Ni	      1.90796      3.87286     -1.97975         0.342099     -0.413761     -0.799265
O	      3.81737      1.91834      0.14094         0.019820      0.751463     -0.517892
O	      5.81889      3.93327     -0.11918         0.616407     -0.100310      1.058912
O	      3.81721      3.86634     -2.09680        -0.466816      0.008956     -0.155055
O	      5.63143      5.74234     -1.91111         1.478217      1.361042     -0.661607
O	      0.00172      2.08651     -0.03501        -0.525871     -1.674025      0.619012
O	      1.81552      3.93413     -0.11881         1.622427     -0.318459      1.025638
O	      0.00208      3.74282     -1.99699        -1.021389      0.486359     -0.815086
O	      2.00312      5.74162     -1.91075        -1.174757      1.532003     -0.682889
