# total energy = -77.43998595 eV
 
CRYSTAL
PRIMVEC
-0.000086 2.036045 2.034674 
8.069337 -0.000197 0.000012 
0.000018 4.126288 -4.124705 
PRIMCOORD
16 1
Li	      0.00248      0.14496     -0.05533        -0.032423     -0.035592      0.009355
Li	      2.01184      2.06406      0.00805         0.004211     -0.015470      0.018287
Li	      4.01664      1.98977     -1.94872         0.008982     -0.011523      0.018001
Li	      6.02145      2.06366      0.00863         0.071746     -0.000922      0.004891
Ni	      6.02560      4.07491     -2.08349         0.176626     -0.065645     -0.033803
Ni	      4.01658      0.01628     -0.01007         0.005573     -0.200093      0.104976
Ni	      0.00213      4.06025     -0.01831        -0.368647      0.111497      0.079108
Ni	      2.00757      4.07507     -2.08312         0.043560     -0.025383     -0.079449
O	      4.01667      2.01850      0.14830        -0.003810      0.185865     -0.204288
O	      6.12270      4.13863     -0.12540         0.015249     -0.084894      0.191118
O	      4.01651      4.06820     -2.20628        -0.053050     -0.084824      0.063254
O	      5.92545      6.04216     -2.01089         0.305848      0.246496     -0.190225
O	      0.00182      2.19545     -0.03684        -0.072595     -0.322124      0.203419
O	      1.91032      4.13953     -0.12501         0.327741     -0.124502      0.194717
O	      0.00219      3.93823     -2.10125        -0.169218      0.156696     -0.180172
O	      2.10771      6.04139     -2.01051        -0.259793      0.270418     -0.199190
