# total energy = -75.65677797 eV
 
CRYSTAL
PRIMVEC
-0.000090 2.138359 2.136918 
8.474831 -0.000207 0.000012 
0.000019 4.333639 -4.331977 
PRIMCOORD
16 1
Li	      0.00273      0.15989     -0.06104         0.414755      0.220500     -0.218568
Li	      2.21912      2.27672      0.00888        -0.069792      0.089707     -0.059596
Li	      4.43046      2.19477     -2.14949        -0.097632     -0.074402      0.161551
Li	      6.64183      2.27627      0.00952        -0.761075     -0.073433      0.039405
Ni	      6.64640      4.49474     -2.29814        -2.202578      0.460941      0.018945
Ni	      4.43040      0.01796     -0.01110        -0.049686      1.691456     -1.209557
Ni	      0.00245      2.34021     -2.15712         3.958760     -0.687731      0.259735
Ni	      2.21441      4.49491     -2.29774        -0.127796      0.103211      0.360507
O	      4.43049      2.22646      0.16358         0.013566     -0.168144      0.173925
O	      6.75360      2.42666     -2.27524        -3.038226      0.152237     -0.692385
O	      4.43033      4.48734     -2.43359         0.304576     -0.480078      0.736256
O	      6.53601      0.19267     -0.02300        -0.793054     -1.093405      0.631928
O	      0.00201      2.42163     -0.04064         0.793368      0.977282     -0.577388
O	      2.10721      2.42766     -2.27481        -0.713780      0.351719     -0.668344
O	      0.00241      4.34398     -2.31774         1.998601     -0.271179      0.427539
O	      2.32493      0.19182     -0.02259         0.369993     -1.198680      0.616048
