# total energy = -77.55694550 eV
 
CRYSTAL
PRIMVEC
2.042319 4.106687 2.084540 
2.023083 -4.090058 2.070640 
4.079822 0.002589 -4.169396 
PRIMCOORD
16 1
Li	      0.09545      0.00066     -0.06205         0.064360      0.008064     -0.013918
Li	      2.05171      2.06275     -0.00151         0.059988     -0.038217      0.006613
Li	      1.97839     -0.00160     -2.01288        -0.053521     -0.001540      0.006530
Li	      2.05178     -2.03487      0.00102        -0.005503     -0.055735     -0.020527
Ni	      4.10293      2.06432     -2.09443         0.100229     -0.178128      0.149754
Ni	      2.06403      0.00803      2.06645         0.323780      0.036835     -0.298960
Ni	      4.07391      0.00706      0.01520        -0.127821      0.041573      0.107960
Ni	      4.09342     -2.05419     -2.10146         0.051060      0.165235      0.092927
O	      4.20237     -1.94636     -0.06442        -0.060200      0.019083     -0.072542
O	      2.18511     -0.04994      0.01352         0.071978      0.014232     -0.010220
O	      4.10768      1.96479     -0.16606        -0.002354     -0.024256     -0.029630
O	      6.13037     -1.94569     -1.94232        -0.136860      0.033260     -0.007779
O	      3.95314      0.06599      2.06907        -0.033418      0.018651     -0.034760
O	      4.23497     -0.01116     -2.12589        -0.115411     -0.053930      0.073954
O	      6.03620      1.96469     -2.04409        -0.082636     -0.009728      0.057108
O	      6.00349      0.02966      0.01612        -0.053671      0.024601     -0.006509
