# total energy = -77.51121187 eV
 
CRYSTAL
PRIMVEC
2.052480 4.127118 2.094910 
2.033148 -4.110407 2.080942 
4.100119 0.002602 -4.190139 
PRIMCOORD
16 1
Li	      0.09640      0.00067     -0.06267         0.101440      0.007945      0.002319
Li	      2.07217      2.08332     -0.00152         0.116408     -0.074102      0.010298
Li	      2.01845     -0.00153     -2.01218        -0.076548      0.003216     -0.015239
Li	      2.08246     -2.03463      0.01145        -0.011915     -0.103590     -0.039703
Ni	      4.14386      2.08491     -2.11533         0.191866     -0.344018      0.282673
Ni	      2.08462      0.00812      2.08707         0.563574      0.070417     -0.500515
Ni	      4.11454      0.00713      0.01535        -0.199480      0.059637      0.138614
Ni	      4.13425     -2.07469     -2.12243         0.102516      0.324300      0.175566
O	      4.24428     -1.96578     -0.06505        -0.017871      0.174695     -0.195213
O	      2.20691     -0.05044      0.01366         0.236219      0.028062      0.103020
O	      4.14865      1.98439     -0.16772         0.073097     -0.152870     -0.144648
O	      6.19152     -1.96510     -1.96170        -0.342084      0.190770      0.071750
O	      3.99258      0.06665      2.08970        -0.174805      0.029219     -0.181898
O	      4.27721     -0.01127     -2.14710        -0.121953     -0.068204      0.217900
O	      6.09641      1.98428     -2.06448        -0.248289     -0.157263      0.171449
O	      6.06337      0.02996      0.01628        -0.192173      0.011784     -0.096373
