# total energy = -77.25790184 eV
 
CRYSTAL
PRIMVEC
2.072802 4.167981 2.115652 
2.053279 -4.151104 2.101545 
4.140714 0.002627 -4.231626 
PRIMCOORD
16 1
Li	      0.09833      0.00068     -0.06391         0.170681      0.011442      0.039925
Li	      2.11341      2.12478     -0.00156         0.222422     -0.135588      0.013575
Li	      2.09947     -0.00140     -2.01047        -0.112544      0.015807     -0.069786
Li	      2.14443     -2.03385      0.03263        -0.021530     -0.184153     -0.073946
Ni	      4.22632      2.12640     -2.15742         0.327193     -0.619909      0.506081
Ni	      2.12611      0.00828      2.12860         0.977396      0.124005     -0.838926
Ni	      4.19642      0.00727      0.01565        -0.294737      0.093241      0.189733
Ni	      4.21652     -2.11597     -2.16466         0.167932      0.591998      0.312179
O	      4.32875     -2.00490     -0.06635         0.055666      0.416888     -0.399164
O	      2.25083     -0.05144      0.01393         0.472629      0.045123      0.299900
O	      4.23121      2.02388     -0.17106         0.220509     -0.354100     -0.334853
O	      6.31473     -2.00420     -2.00074        -0.708406      0.453130      0.206954
O	      4.07203      0.06797      2.13129        -0.393982      0.048124     -0.435977
O	      4.36233     -0.01150     -2.18983        -0.155940     -0.100119      0.474286
O	      6.21772      2.02377     -2.10556        -0.526329     -0.402397      0.386766
O	      6.18404      0.03055      0.01660        -0.400960     -0.003493     -0.276747
