# total energy = -76.40100903 eV
 
CRYSTAL
PRIMVEC
1.973785 3.995247 1.996532 
1.973965 -3.995087 1.996144 
3.955352 -0.000219 -4.000570 
PRIMCOORD
16 1
Li	      1.92576     -3.88915      1.94507        -0.105207     -0.156808      0.214762
Li	      3.85204     -1.94478      1.94351         0.162398     -0.182460      0.351650
Li	      3.85409      3.89381     -0.00479         0.080817      0.223836     -0.082187
Li	      3.85575     -1.94551     -1.95340         0.045750     -0.177179     -0.467887
Ni	      5.78016     -1.94564     -0.00708         1.415597     -1.583840     -0.107152
Ni	      1.92561      0.02492      1.94529        -1.470972      0.460560      0.924952
Ni	      1.92750     -1.94590     -0.00298        -0.981459     -1.582744     -0.455831
Ni	      3.85373     -0.02078     -0.00494         0.341574      0.670393     -0.323841
O	      3.85333     -1.82209     -0.00488        -0.002113     -1.355075     -0.092167
O	      2.03205     -0.10882     -0.01948        -1.361375      1.153151     -0.906130
O	      3.85377      1.79111     -0.00559         0.115164      1.592841      0.049962
O	      1.92551     -1.78673      1.94635        -0.335048     -1.451307      0.491164
O	      3.74742      0.11344      1.96013         1.491908     -0.176752      0.685915
O	      3.96017      0.11318     -1.96998        -0.349673     -0.215324     -0.881095
O	      1.92611      1.82624      1.94547        -0.444686      1.553311      0.275863
O	      5.67547     -0.10904      0.00998         1.397326      1.227397      0.322024
