# total energy = -77.13983816 eV
 
CRYSTAL
PRIMVEC
2.075004 4.200131 2.098918 
2.075194 -4.199963 2.098510 
4.158190 -0.000230 -4.205727 
PRIMCOORD
16 1
Li	      0.05314     -0.09830      0.05116         0.092518      0.123551     -0.186251
Li	      2.18206      2.05061      0.04944        -0.060318      0.106931     -0.215085
Li	      2.18451      0.10329     -2.10421        -0.061133     -0.182674      0.055710
Li	      4.26136     -2.15017     -2.15889        -0.040789      0.097048      0.355521
Ni	      4.31300      2.04965     -2.10633        -1.087556      1.061063      0.010182
Ni	      2.12817      0.02754      2.14993         0.943313     -0.402403     -0.501505
Ni	      2.13026     -2.15060     -0.00329         0.541691      0.987453      0.196045
Ni	      4.25911     -0.02296     -0.00546        -0.199949     -0.325180      0.218341
O	      4.25867     -2.01377     -0.00539        -0.015391      0.388070      0.071015
O	      2.24581     -0.12027     -0.02154         0.464019     -0.435331      0.373409
O	      4.25916      1.97953     -0.00617        -0.066796     -0.634940     -0.043542
O	      2.12807     -1.97468      2.15110         0.225698      0.493066     -0.199881
O	      4.14163      0.12537      2.16632        -0.540356     -0.131818     -0.422081
O	      4.37675      0.12508     -2.17721        -0.114008     -0.062727      0.636594
O	      2.12872      2.01834      2.15012         0.476052     -0.609973     -0.243607
O	      6.27249     -0.12051      0.01103        -0.556996     -0.472134     -0.104866
