# total energy = -76.73840687 eV
 
CRYSTAL
PRIMVEC
1.991703 4.036872 1.981572 
3.997900 -4.043508 -0.001383 
3.992266 -0.006678 -3.958742 
PRIMCOORD
16 1
Li	      1.94966      3.88110      1.90791        -0.111115      0.114408      0.075814
Li	      1.96821      1.97331      0.00955        -0.233048      0.153906      0.246843
Li	      1.94255      0.01477     -1.89577        -0.306026      0.045457     -0.184726
Li	      1.95594     -1.96285     -0.01219        -0.272742     -0.275257      0.051297
Ni	      7.80546     -1.99902     -1.96385         0.800304     -0.760858     -0.581154
Ni	      3.90875     -0.00032      0.00557         0.085706      0.145081      1.111352
Ni	      3.92183     -1.98842     -1.92236        -0.323801     -0.913138     -0.532506
Ni	      5.88383     -0.00005     -1.94534         0.249506      0.429855     -0.691855
O	      3.91701     -1.81118     -0.01706        -0.006819     -1.204163      0.442238
O	      5.75833      0.01666     -0.07775         0.963057     -0.259189      1.056676
O	      2.09901      0.02719      0.09376        -1.572755     -0.057276     -0.326268
O	      3.96289      1.81581     -0.03362        -0.329197      1.329962      0.836500
O	      5.85248     -1.83286     -1.94708         0.019690     -0.897202     -0.208729
O	      7.86233     -0.06504     -2.07867         1.126678      0.643089      0.211191
O	      3.86138     -0.00315     -1.81977        -0.467939      0.373859     -1.099862
O	      5.82295      1.83626     -1.87787         0.378502      1.131464     -0.406812
