# total energy = -77.07933522 eV
 
CRYSTAL
PRIMVEC
2.001865 4.057468 1.991682 
4.018297 -4.064138 -0.001390 
4.012634 -0.006712 -3.978940 
PRIMCOORD
16 1
Li	      1.96961      3.92081      1.92743        -0.082582      0.079837      0.052976
Li	      1.98834      1.99350      0.00965        -0.161695      0.112901      0.183110
Li	      1.96242      0.01492     -1.91517        -0.223971      0.036072     -0.123727
Li	      1.97595     -1.98293     -0.01231        -0.199570     -0.196562      0.035181
Ni	      7.88531     -2.01947     -1.98393         0.558297     -0.550800     -0.431909
Ni	      3.94873     -0.00032      0.00563         0.056050      0.107248      0.789329
Ni	      3.96196     -2.00877     -1.94202        -0.199973     -0.636555     -0.354655
Ni	      5.94402     -0.00005     -1.96524         0.184334      0.314415     -0.483888
O	      3.95708     -1.82971     -0.01723        -0.009224     -0.876864      0.312008
O	      5.81724      0.01683     -0.07855         0.706531     -0.216973      0.772220
O	      2.12048      0.02747      0.09472        -1.158346     -0.043596     -0.272557
O	      4.00343      1.83438     -0.03397        -0.290540      0.975960      0.628657
O	      5.91235     -1.85161     -1.96699         0.025506     -0.666913     -0.150007
O	      7.94276     -0.06570     -2.09993         0.854388      0.474019      0.185831
O	      3.90088     -0.00318     -1.83839        -0.359795      0.253471     -0.803547
O	      5.88252      1.85505     -1.89708         0.300589      0.834340     -0.339019
