# total energy = -75.57349377 eV
 
CRYSTAL
PRIMVEC
2.133968 4.325220 2.123113 
4.283464 -4.332330 -0.001481 
4.277428 -0.007155 -4.241510 
PRIMCOORD
16 1
Li	      0.10416      0.13013      0.06709         0.715373     -0.194489     -0.169616
Li	      2.25942      2.26529      0.01097         0.403443     -0.105588     -0.243459
Li	      2.22997      0.01696     -2.17627         0.339756     -0.152103      0.311346
Li	      2.24534     -2.25327     -0.01399         0.476904      0.413978     -0.174968
Ni	      4.67688      2.03754     -2.25293        -1.235167      0.968162      0.625040
Ni	      4.48709     -0.00036      0.00640         0.132829     -0.127043     -1.458548
Ni	      4.50211     -2.28263     -2.20679         0.193716      0.989311      0.567641
Ni	      6.75439     -0.00005     -2.23318        -0.418943     -0.564937      0.918826
O	      4.49657     -2.07916     -0.01958         0.239487      0.436581     -0.416942
O	      6.61033      0.01912     -0.08926        -0.169596      0.454987     -1.154116
O	      2.40957      0.03122      0.10763         0.771833      0.100140     -0.049316
O	      4.54923      2.08447     -0.03860         0.743874     -0.800405     -0.911290
O	      6.71841     -2.10405     -2.23517        -0.316345      0.598950      0.224110
O	      9.02564     -0.07466     -2.38623        -1.935458     -0.588788      0.614200
O	      4.43271     -0.00361     -2.08903         0.542116     -0.174840      0.711619
O	      6.68451      2.10795     -2.15572        -0.483824     -1.253916      0.605474
