# total energy = -77.37606786 eV
 
CRYSTAL
PRIMVEC
-0.000153 4.298920 0.000115 
3.967372 -0.000088 3.967937 
3.967457 -0.000168 -3.968022 
PRIMCOORD
16 1
Li	      0.03102      0.00199      0.03022        -0.048744     -0.021144      0.011219
Li	      1.94185      2.13930      0.03167        -0.064650      0.013648      0.012787
Li	      1.94350      4.27718      1.94381        -0.028767      0.024830      0.030660
Li	      3.97874      2.13923     -2.00364         0.027433      0.009710     -0.081090
Ni	      3.93500      0.00030     -0.01274         0.079059     -0.073728      0.056054
Ni	      5.93416      2.13946     -0.01274         0.365822      0.023487     -0.303637
Ni	      3.93515      2.13896      1.98649        -0.065866      0.040573      0.129407
Ni	      1.98676      0.00048     -1.96180        -0.272798     -0.086125     -0.299076
O	      2.07263      4.27721     -0.09937        -0.387386      0.064628      0.324076
O	      4.04193      2.13862      0.09394        -0.287105      0.050384     -0.326560
O	      4.04177      0.00062      1.88015        -0.108235     -0.068012      0.325145
O	      5.82756      2.13878      1.87924         0.367291      0.044110      0.334209
O	      3.84898      0.00028     -1.87500         0.343029     -0.025421     -0.415132
O	      2.07293      2.13918      2.07317        -0.439913      0.031272     -0.132560
O	      5.82724      0.00014      0.09392         0.356645     -0.050611     -0.134836
O	      3.84889      2.13937      3.84888         0.164185      0.022398      0.469333
