# total energy = -76.66903806 eV
 
CRYSTAL
PRIMVEC
4.017288 -0.000710 4.019703 
-0.000733 4.016794 -4.019681 
0.000167 4.015939 4.018825 
PRIMCOORD
16 1
Li	      0.00266      3.93751      3.93395        -0.309986     -0.050154      0.145170
Li	      1.97265      5.90845      3.93706         0.129151      0.274184      0.184390
Li	      1.97238      3.93478      5.90452         0.043887      0.085713      0.238734
Li	      0.00554      1.96482      1.96657        -0.176847     -0.087349     -0.020950
Ni	      0.00078      1.97305     -1.96879        -0.531373     -1.026756     -2.205674
Ni	      1.96894      3.93994      1.96915        -0.150420      0.161403     -0.711196
Ni	      1.96879      1.97022      3.93874        -0.349062     -1.320024      1.030156
Ni	      3.93650      3.93854      3.93979         1.270631      0.545905      1.175998
O	      3.87308      2.03345      3.88102         0.591766     -0.592136      1.397396
O	      3.87811      3.87828      2.02846         0.445903      1.069524     -1.038441
O	      2.02950      2.03494      2.02898        -0.620452     -0.257121     -1.026647
O	      1.90666      3.99608      0.06119         0.516787     -0.509720     -0.380847
O	      0.05928      4.00278      1.91126        -0.411215     -0.489433      0.560659
O	      0.06371      5.84454      0.05915        -0.465694      0.686865     -0.219508
O	      2.02916      3.88116      3.87741        -1.137429      1.144423      0.343435
O	      1.90928      5.84539      1.91025         1.154355      0.364675      0.527326
