# total energy = -77.34518810 eV
 
CRYSTAL
PRIMVEC
4.160763 -0.000735 4.163264 
-0.000759 4.160251 -4.163241 
0.000173 4.159365 4.162355 
PRIMCOORD
16 1
Li	      0.00268      0.06442      0.05762         0.143158      0.016876     -0.060976
Li	      2.11590      2.17865      0.06095        -0.073669     -0.132259     -0.094350
Li	      2.11561      0.06149      2.17145        -0.038358     -0.042448     -0.151614
Li	      0.00594      2.10767      2.10954         0.078676      0.054395      0.029117
Ni	      0.00084      2.11649     -2.11193         0.337435      0.588230      1.022227
Ni	      2.11209      4.22640      2.11232         0.065024     -0.085541      0.335346
Ni	      2.11193      2.11347      4.22511         0.179200      0.709497     -0.541102
Ni	      0.06193      4.22563      0.06296        -0.670010     -0.288651     -0.647045
O	      4.15467      2.18129      4.16319        -0.246797      0.154267     -0.271243
O	      4.16006      4.16025      2.17593        -0.264780     -0.376499      0.273946
O	      2.17705      2.18289      2.17649         0.106072      0.161671      0.278982
O	      2.04529      4.28661      0.06564        -0.077131      0.071233      0.332319
O	      0.06359      4.29380      2.05021         0.216649      0.117284     -0.154409
O	      0.06834      6.26946      0.06345         0.202203     -0.262168     -0.002303
O	      2.17669      4.16334      4.15931         0.385318     -0.354949     -0.167975
O	      2.04810      6.27037      2.04914        -0.342988     -0.330940     -0.180920
