# total energy = -77.17446203 eV
 
CRYSTAL
PRIMVEC
4.181259 -0.000739 4.183773 
-0.000763 4.180744 -4.183749 
0.000174 4.179855 4.182859 
PRIMCOORD
16 1
Li	      0.00271      0.08565      0.07879         0.178743      0.016540     -0.081734
Li	      2.13679      2.22076      0.08216        -0.091819     -0.162555     -0.121423
Li	      2.13650      0.08268      2.21350        -0.046405     -0.056919     -0.207560
Li	      0.00600      2.12849      2.13038         0.099794      0.068779      0.043727
Ni	      0.00085      2.13740     -2.13278         0.428328      0.744523      1.274899
Ni	      2.13295      4.26814      2.13318         0.079551     -0.108210      0.422653
Ni	      2.13279      2.13434      4.26683         0.225687      0.901639     -0.691922
Ni	      0.08314      4.26736      0.08419        -0.851678     -0.366482     -0.822363
O	      0.01445      2.20357      0.02053        -0.336949      0.218075     -0.334783
O	      0.01989      4.20207     -1.98635        -0.392975     -0.469402      0.347759
O	      2.19856      2.20445      2.19799         0.148949      0.243054      0.353810
O	      2.06549      4.32894      0.06629        -0.103385      0.109754      0.492183
O	      0.06422      4.33620      2.07046         0.327827      0.159772     -0.223141
O	      0.06902      6.33138      0.06408         0.284391     -0.364649      0.050928
O	      2.19818      4.20446      4.20039         0.486383     -0.462682     -0.249559
O	      2.06832      6.33230      2.06937        -0.436443     -0.471239     -0.253472
