# total energy = -19.38040572 eV
 
CRYSTAL
PRIMVEC
0.000422 2.043428 2.044530 
2.050275 -2.043866 0.000860 
4.121927 2.066182 -2.066433 
PRIMCOORD
4 1
Li	      2.04927     -2.03646     -0.00079        -0.000700     -0.003424     -0.001132
Ni	      4.11135      0.01527     -0.01251         0.001528     -0.002408      0.000874
O	      4.05611      1.99314      0.04924         0.166433      0.054354     -0.093128
O	      2.11638      0.08051     -0.07497        -0.167261     -0.048522      0.093386
