# total energy = -37.89829290 eV
 
CRYSTAL
PRIMVEC
0.000179 2.068658 2.068611 
8.219982 0.000188 0.000403 
-0.000059 2.068680 -2.068633 
PRIMCOORD
8 1
Li	      0.12388      0.00152     -0.00029         0.081568      0.001542     -0.000166
Li	      1.92428      2.07083      0.00052        -0.062764      0.000465     -0.001308
Ni	      4.05058      0.00302     -0.00019        -0.194871     -0.001207      0.000593
Ni	      6.22710      2.07149     -0.00039         0.182658      0.000430      0.000846
O	      4.23367      2.07175     -0.00026        -0.015637      0.001073     -0.000048
O	      6.04728      0.00305     -0.00044         0.019264     -0.000423      0.000321
O	      8.11519      2.07087     -0.00017         0.077943     -0.000476      0.000635
O	      2.16024      0.00261      0.00044        -0.088159     -0.001404     -0.000873
