# total energy = -57.77671352 eV
 
CRYSTAL
PRIMVEC
0.000001 2.020595 2.021266 
4.068176 0.000094 -0.000091 
0.000267 6.237722 -6.239401 
PRIMCOORD
12 1
Li	      4.06812      0.03882     -0.03798         0.000330      0.032797     -0.035613
Li	      2.03454      2.08708     -0.07237        -0.000201      0.035031     -0.033244
Li	      2.03444      4.03898     -2.02261         0.000085     -0.057457      0.057250
Ni	      0.00040      4.08032     -0.04307         0.000671      0.056861     -0.053399
Ni	      4.06826      6.14814     -2.10894         0.001255     -0.085660      0.084178
Ni	      2.03425      6.24003     -4.22049        -0.000141      0.021445     -0.029441
O	      0.00038      4.10528     -2.08842        -0.000681     -0.054840      0.058105
O	      2.03420      6.32548     -2.28595         0.000580     -0.131389      0.135993
O	      0.00060      2.14967     -0.13320        -0.001721     -0.115293      0.115771
O	      2.03456      4.10131     -0.06461        -0.000120     -0.000159      0.001698
O	      4.06837      6.12269     -4.10358        -0.000895      0.113694     -0.115934
O	      2.03419      6.10991     -6.11106         0.000838      0.184970     -0.185364
