# total energy = -91.08826261 eV
 
CRYSTAL
PRIMVEC
-0.000227 2.077519 2.081076 
8.235465 2.101208 -2.105620 
-0.013090 4.229160 -4.236185 
PRIMCOORD
16 1
Li	      4.15009      2.18847     -2.19126         0.003948     -0.083594      0.084925
Li	      5.95988      4.24407     -2.16708         0.054643      0.006346     -0.010609
Li	      2.22077      4.19757     -2.12275        -0.058626     -0.005887      0.006364
Li	      4.19593      4.14082     -4.14773        -0.019874      0.081012     -0.077188
Mn	      8.19228      2.09321     -2.09457         0.011783      0.013310     -0.012152
Mn	      2.15708      2.10782     -0.02942         0.156673     -0.010121      0.008113
Ni	      8.17828      4.23122     -4.23585         0.069285     -0.019149      0.019292
Ni	      6.05707      6.29774     -4.22421        -0.081989      0.037130     -0.036637
O	      6.20747      4.30106     -4.30712        -0.144278     -0.123558      0.121413
O	      0.07342      4.22899     -2.14446         0.033127      0.078805     -0.070744
O	      6.31003      2.04284     -2.04164         0.021694      0.085009     -0.083131
O	      0.09108      2.09276     -0.01898         0.021756     -0.066103      0.059129
O	      2.00803      1.97005     -1.97004         0.091233     -0.014305      0.015208
O	      4.07544      4.19792     -2.12328         0.010265      0.004068     -0.002230
O	      1.93052      6.43528     -2.28445         0.000584      0.016066     -0.021543
O	      3.97477      2.08452     -0.00554        -0.170225      0.000971     -0.000212
