# total energy = -74.84204997 eV
 
CRYSTAL
PRIMVEC
-0.000070 2.061731 2.061759 
2.061868 -2.062002 0.000201 
10.680478 12.744331 0.029323 
PRIMCOORD
16 1
Li	      0.04484      2.10149      2.01811        -0.058843     -0.058242      0.058709
Li	      2.08512      2.08162     -0.02393         0.016537      0.016805     -0.015912
Li	      4.16183      2.09813     -2.10108         0.045527      0.046472     -0.045681
Li	      4.25042      6.31198     -2.18949         0.003401      0.002869     -0.003435
Ni	      6.36627      6.36399     -4.30401        -0.086765     -0.083910      0.085009
Ni	      8.49879      6.43579     -6.43617        -0.225339     -0.225968      0.224597
Ni	      8.54505     10.60545     -6.48253         0.061332      0.065536     -0.063813
Ni	     10.66714     10.66518     -8.60438         0.228473      0.232019     -0.229851
O	     10.61620      8.55277     -8.55361        -0.183918     -0.185037      0.185344
O	      6.41965      8.48033     -4.35730         0.152137      0.150356     -0.151713
O	      8.51039      8.50949     -6.44788         0.126361      0.123433     -0.125995
O	      6.45556      4.39097     -4.39332        -0.096569     -0.098021      0.098212
O	      2.06061      4.12100     -0.00056         0.093725      0.091551     -0.093067
O	      4.22896      4.22774     -2.16818        -0.167730     -0.167394      0.168340
O	     10.58657     12.64655     -8.52388         0.021346      0.020842     -0.020833
O	      2.10266      0.03540     -0.03973         0.070324      0.068690     -0.069913
