# total energy = -75.37339761 eV
 
CRYSTAL
PRIMVEC
0.000027 2.062266 2.060763 
4.122042 -0.002518 0.002569 
-0.010237 8.386892 -8.380472 
PRIMCOORD
16 1
Li	      0.00613      2.14119      1.97886        -0.000981      0.016108     -0.015773
Li	      2.06331      2.09719     -0.03287         0.002253     -0.020769      0.022101
Li	      4.11595      4.13314     -0.01493        -0.000826      0.021592     -0.023580
Li	      2.05106      4.09433     -2.03158         0.000696     -0.020613      0.020441
Ni	      4.11327      4.14037     -4.13704        -0.005035     -0.082533      0.081909
Ni	      2.05343      6.25954     -4.19622         0.000008      0.033676     -0.033213
Ni	     -0.00640      8.36451     -4.24115        -0.000167     -0.058009      0.060664
Ni	      2.05568      8.41581     -6.35454         0.003799      0.092644     -0.091137
O	      4.11444      6.25441     -4.19192         0.000210     -0.015154      0.012436
O	      2.05462      8.36784     -4.24425        -0.000259      0.002501     -0.000675
O	      4.11196      4.26869     -2.20227         0.003805      0.042825     -0.040877
O	      2.05225      6.34000     -2.21434         0.000972     -0.076290      0.075653
O	      0.00352      2.11735     -0.06048         0.012347      0.150415     -0.152896
O	      2.05354      2.05171     -2.04899        -0.014804     -0.135434      0.139992
O	     -0.00528      8.28212     -6.22093        -0.001085      0.083047     -0.085388
O	      2.05702     10.34845     -6.22666        -0.000933     -0.034007      0.030342
