# total energy = -77.51827936 eV
 
CRYSTAL
PRIMVEC
2.045556 4.097414 2.018690 
4.107445 -2.054614 -2.023229 
-0.003163 4.104590 -4.048365 
PRIMCOORD
16 1
Li	      0.02111      0.03442     -0.04437         0.027696      0.019302     -0.017555
Li	      2.01099      2.05695      0.00816        -0.011811     -0.009906     -0.011736
Li	      2.03924      0.02990     -1.95982        -0.025789      0.025711      0.021202
Li	      2.06169      6.08357      0.00055         0.011264     -0.009930      0.033171
Ni	      4.12368      2.05866     -2.00617        -0.005532      0.018773      0.069027
Ni	      2.03598      4.09118     -2.03202        -0.070246     -0.046309      0.004762
Ni	      4.08993      6.14980     -2.04754        -0.000013     -0.045963     -0.022221
Ni	      4.10239      4.11278     -4.06600         0.068741     -0.045500     -0.027832
O	      2.14042      2.16934     -2.08418        -0.104427     -0.122350      0.072161
O	      4.10117      4.07612     -2.14078         0.116996     -0.005655      0.143450
O	      2.05006      4.04000     -3.94775        -0.112841      0.124182     -0.131934
O	      4.15112      1.89518      0.02604        -0.002430      0.187707      0.029260
O	      4.05766      0.11502     -1.88840         0.001770     -0.116285     -0.212720
O	      1.96098      4.09109     -0.12717         0.132718     -0.007512      0.155191
O	      4.06057      2.18959     -4.03847        -0.022876     -0.134048     -0.102453
O	      2.10451      5.98183     -2.02859        -0.003222      0.167782     -0.001773
