# total energy = -76.89803973 eV
 
CRYSTAL
PRIMVEC
-0.000062 2.032379 2.031899 
6.070507 0.004523 -2.036592 
-2.063740 6.241631 -4.208174 
PRIMCOORD
16 1
Li	      0.00309      2.09635      1.96864         0.052048      0.029581     -0.027814
Li	      1.94781      2.11831     -0.08457        -0.063483      0.005780     -0.009839
Li	      0.05482      4.04883      0.01693         0.061987     -0.007559      0.008002
Li	      1.99945      4.06955     -2.03718        -0.050822     -0.027314      0.029050
Ni	      4.03654      2.06937     -2.06856         0.000241      0.000619      0.003611
Ni	      4.01278      4.12183     -4.12003        -0.009239     -0.069727      0.066946
Ni	     -0.03082      6.20391     -2.13825         0.007981      0.004499     -0.004805
Ni	      1.99728      6.25818     -4.22536        -0.000541      0.074322     -0.057234
O	      4.04078      4.11555     -2.08100        -0.013818      0.005589     -0.016217
O	      4.03245      2.05581     -0.02342         0.011942     -0.007939      0.011008
O	      1.98154      6.29639     -2.22965         0.030743     -0.096322      0.093961
O	      2.14170      2.06430     -2.06338        -0.155066      0.022247     -0.013637
O	      4.02789      6.11663     -4.08318        -0.029033      0.092268     -0.098110
O	     -0.01616      6.09135     -4.05893        -0.093089      0.147463     -0.137097
O	     -0.04462      4.28430     -2.24982         0.092135     -0.151569      0.143244
O	     -0.13932      2.07010     -0.03644         0.158017     -0.021939      0.008930
