# total energy = -76.53033888 eV
 
CRYSTAL
PRIMVEC
0.000079 2.048639 2.047816 
6.092517 6.247676 -4.197310 
-4.070482 2.094235 -2.093643 
PRIMCOORD
16 1
Li	      6.06665      6.22536     -4.17788         0.045446      0.001217      0.003894
Li	     -2.09843      4.05980     -2.01313        -0.018242     -0.025808      0.030272
Li	      2.08442      6.35460     -4.30441         0.016326      0.025691     -0.030774
Li	     -2.01203      2.09516     -0.04620        -0.043141     -0.001460     -0.003969
Ni	     -0.00667      6.23177     -2.13368         0.000525      0.001349      0.000603
Ni	     -0.05345      4.12664     -0.03189         0.078505      0.068903     -0.056302
Ni	      2.02859      4.16005     -2.11063        -0.003117      0.000809     -0.001921
Ni	      4.10981      6.24130     -2.14412        -0.078656     -0.070099      0.062118
O	      2.11360      6.10827     -2.01167        -0.040035      0.115986     -0.115384
O	      1.94311      4.26046     -0.16186         0.041782     -0.116910      0.114167
O	      0.01040      6.21947     -4.17046         0.101381      0.040042     -0.037814
O	      1.88986      8.34647     -4.24926         0.241813     -0.008150      0.012522
O	     -1.90400      4.11649     -0.02039        -0.242997      0.008269     -0.011044
O	     -0.02419      4.19593     -2.14423        -0.098155     -0.042124      0.035422
O	      4.03818      6.11581     -4.06799        -0.019223      0.141009     -0.142465
O	      0.01751      2.20230     -0.15655         0.017789     -0.138723      0.140676
