# total energy = -76.73534801 eV
 
CRYSTAL
PRIMVEC
-0.002249 2.052283 2.036201 
6.062435 6.261015 -4.182684 
-4.030031 2.090355 -2.069483 
PRIMCOORD
16 1
Li	     -4.02306      4.14532     -0.03695         0.010788     -0.009120      0.005820
Li	     -2.10393      4.13163     -2.05333        -0.037735      0.017628     -0.015779
Li	      2.07611      6.28781     -4.22025        -0.017074      0.017909     -0.041006
Li	     -0.03530      4.11688     -0.02960         0.010041     -0.000960     -0.014960
Ni	      0.02967      6.22646     -2.10730         0.018403      0.045236     -0.036396
Ni	     -2.03360      2.08365     -0.03414        -0.154853     -0.056633      0.063413
Ni	      2.02421      4.14775     -2.08585         0.007769     -0.021565      0.037430
Ni	      4.11001      6.28184     -2.15143         0.067805      0.016761      0.001300
O	      2.05258      6.23076     -1.94943         0.015876      0.092137     -0.123447
O	      2.08029      4.14739     -0.18944        -0.086115     -0.110613      0.134964
O	     -0.05930      6.29166     -4.19624         0.098994     -0.031093      0.031104
O	      2.07907      8.28845     -4.16576        -0.025870     -0.012256      0.013761
O	     -2.03964      4.03149      0.06037         0.012235      0.102138     -0.113619
O	      0.12998      4.24274     -2.15880        -0.156684     -0.100020      0.111857
O	      4.04009      6.27357     -4.17944         0.012780      0.060569     -0.044625
O	     -0.15925      2.08223     -0.03844         0.223640     -0.010117     -0.009816
