# total energy = -75.87691653 eV
 
CRYSTAL
PRIMVEC
0.000043 2.063150 -2.063181 
0.000045 2.063178 2.063208 
16.155127 0.000431 0.000023 
PRIMCOORD
16 1
Li	      0.15218      2.06310      2.06135         0.073763     -0.000042     -0.000198
Li	      2.00868      2.06399     -0.00303        -0.062845     -0.001374      0.002865
Li	      6.05678      2.06293     -0.00023        -0.013119      0.000683      0.000181
Li	     10.01769      2.06423      0.00339        -0.018961     -0.001562     -0.002967
Ni	      4.06918      2.06361      2.06113        -0.019607     -0.000130      0.002064
Ni	      8.04717      2.06362     -2.06125         0.029625     -0.000181     -0.001715
Ni	     12.01912      2.06344     -2.06145        -0.201104      0.000228     -0.000270
Ni	     14.19588      2.06325      0.00037         0.172603      0.000699      0.000324
O	     12.19476      2.06341      0.00169        -0.018223      0.000163     -0.001822
O	     14.03654      2.06319     -2.06257         0.013970      0.000676     -0.000401
O	      8.04515      2.06362      0.00200         0.024125     -0.000331     -0.002492
O	     10.07089      2.06408     -2.05998        -0.015998     -0.000234      0.001315
O	      4.06535      2.06358     -0.00218         0.037704      0.000272      0.000980
O	      6.01447      2.06306      2.06290        -0.105121      0.001248      0.000190
O	     16.08191      2.06338     -0.00142         0.025754      0.000239      0.001918
O	      2.17963      2.06397      2.06011         0.077435     -0.000354      0.000028
