# total energy = -76.75084857 eV
 
CRYSTAL
PRIMVEC
-0.000003 2.030267 2.030579 
4.027928 0.000073 -0.000080 
0.000336 8.331259 -8.332469 
PRIMCOORD
16 1
Li	      4.02458      8.32844     -8.32668         0.000416     -0.047956      0.044127
Li	      2.01086      2.06087     -0.03176         0.000996     -0.125483      0.126124
Li	      2.01258      4.10014     -2.06806        -0.001289      0.117054     -0.120638
Li	      4.02575      6.28832     -6.28829        -0.001489      0.063394     -0.067181
Ni	      4.02543      4.10230     -0.04205         0.003679      0.070445     -0.071772
Ni	      4.02657      6.15847     -2.10108        -0.001019     -0.055707      0.061657
Ni	      2.01247      6.25709     -4.22996        -0.001412      0.037277     -0.035935
Ni	      2.01106      8.31545     -6.28621         0.001497     -0.030618      0.030969
O	      4.02649      6.12646     -4.10024         0.000066      0.137983     -0.132825
O	      2.01177      8.32229     -4.26337        -0.001101     -0.008072      0.009560
O	      4.02640      4.09505     -2.06574         0.000381     -0.042525      0.041012
O	      2.01262      6.28856     -2.23185        -0.000887     -0.086114      0.090345
O	      4.02497      2.18508     -0.15534         0.001627     -0.132743      0.131425
O	      2.01195      2.07854     -2.07842        -0.003598      0.005499     -0.008364
O	      4.02505      8.30939     -6.27918         0.002705     -0.008859      0.007689
O	      2.01079      8.20205     -8.20305        -0.000570      0.106424     -0.106193
