# total energy = -77.47346599 eV
 
CRYSTAL
PRIMVEC
-2.053451 4.076978 -2.053555 
2.015998 4.038910 2.016186 
2.062379 0.018976 -6.132287 
PRIMCOORD
16 1
Li	      4.06958      4.05604     -4.10537         0.017475     -0.000758     -0.018371
Li	     -0.06297      6.09585     -2.02759        -0.017832     -0.000780      0.017570
Li	     -0.02457      4.07414     -4.08097        -0.007854      0.000779      0.006129
Li	      0.03686      4.05625     -0.07300        -0.002697      0.000290      0.004936
Ni	      2.04141      6.09430     -4.13127        -0.049693      0.001206      0.048959
Ni	     -0.00536      2.03642     -2.04692        -0.023952      0.000080      0.023847
Ni	      2.02292      4.05599     -2.05907        -0.018938      0.002645      0.019009
Ni	      2.09140      2.03654     -4.14372         0.056638     -0.001309     -0.055999
O	      2.03875      2.18530     -2.09549         0.021581     -0.122879      0.089709
O	      0.13365      3.94542     -2.07418        -0.107271      0.168802     -0.000451
O	      2.05948      5.92701     -2.07466        -0.090914      0.117540     -0.022758
O	      2.00800      2.04884     -6.16262         0.117792      0.000983      0.010407
O	      2.03785      4.16625     -0.16981         0.002247     -0.166454      0.106976
O	     -0.15464      4.09103     -6.11532         0.102355     -0.010051     -0.008267
O	      2.05613      6.10112     -6.11406        -0.006434      0.000397     -0.119339
O	      2.00946      4.05899     -3.95090         0.007495      0.009509     -0.102359
