# total energy = -77.12092553 eV
 
CRYSTAL
PRIMVEC
4.120358 0.000102 0.000047 
0.000021 4.032967 -4.032666 
0.000190 6.110333 2.077232 
PRIMCOORD
16 1
Li	      0.00119      4.05893     -4.00435         0.000800      0.008839      0.004181
Li	      2.06087      2.03361      0.01343         0.002824     -0.001605      0.002700
Li	      0.00244      4.03522      0.00312        -0.002462     -0.008328     -0.004445
Li	      2.06260      4.05042     -2.00313        -0.002617     -0.004937      0.000949
Ni	      2.06174      6.07945      0.06117         0.000662      0.038328     -0.036469
Ni	      0.00127      2.06853     -1.96361         0.000912      0.078631      0.078813
Ni	      0.00148      6.02709     -2.03825         0.000313     -0.080371     -0.075861
Ni	      2.06172      8.12613     -1.98537         0.000452     -0.035210      0.030953
O	      0.00102      2.03078      0.01568         0.000595      0.001813     -0.001395
O	      2.06220      4.21070      0.17863        -0.001695     -0.228676     -0.229304
O	      0.00209      4.04806     -2.00068        -0.001625     -0.000319     -0.001042
O	      2.06173      6.17830     -1.88682        -0.000351     -0.115261     -0.115968
O	      0.00157      6.17359     -0.03349         0.000220     -0.117970      0.119025
O	      2.06159      8.02746     -0.03744         0.000915      0.116093      0.114017
O	      0.00150      8.03207     -1.89185        -0.000352      0.118171     -0.116030
O	      2.06148      5.96165      1.92992         0.001407      0.230803      0.229876
