# total energy = -77.51105697 eV
 
CRYSTAL
PRIMVEC
-0.000086 2.046277 2.044898 
8.109887 -0.000198 0.000012 
0.000018 4.147023 -4.145432 
PRIMCOORD
16 1
Li	      0.00250      0.14642     -0.05589        -0.000344     -0.003208     -0.018455
Li	      2.03211      2.08486      0.00813        -0.003536      0.000088      0.005346
Li	      4.05711      2.00982     -1.96835         0.000663     -0.013545      0.039357
Li	      6.08212      2.08445      0.00872         0.003726      0.000844      0.003977
Ni	      6.08631      4.11597     -2.10448        -0.004484      0.022218      0.018875
Ni	      4.05704      0.01645     -0.01017         0.001137      0.036259     -0.047431
Ni	      0.00216      4.10116     -0.01850        -0.006048     -0.012479      0.044422
Ni	      2.02780      4.11613     -2.10411         0.006226      0.021484      0.016491
O	      4.05714      2.03884      0.14980        -0.002520      0.115475     -0.150634
O	      6.18439      4.18033     -0.12666        -0.141596     -0.080312      0.070763
O	      4.05699      4.10919     -2.22851         0.000437     -0.111718      0.120338
O	      5.98515      6.10304     -2.03115         0.135882      0.065181     -0.103540
O	      0.00183      2.21757     -0.03721         0.004183     -0.134785      0.115445
O	      1.92956      4.18124     -0.12627         0.143642     -0.087478      0.074694
O	      0.00220      3.97792     -2.12242        -0.001226      0.110584     -0.080438
O	      2.12895      6.10226     -2.03076        -0.136139      0.071391     -0.109211
