# total energy = -90.62176389 eV
 
CRYSTAL
PRIMVEC
4.098081 -0.000047 -0.000290 
0.000376 -0.000105 -4.138251 
2.048882 8.344664 -2.068880 
PRIMCOORD
16 1
Li	      4.09831      4.36986     -4.13641        -0.002224      0.030686     -0.000172
Li	      2.04855      6.23973     -4.13582         0.000199      0.012900      0.000389
Li	      4.09502      2.20108     -2.06662         0.004154      0.002270     -0.001187
Li	      4.09847      6.09272     -2.06715        -0.004118      0.035051     -0.000913
Mn	      2.04674      8.22629     -2.06677         0.003279     -0.060745      0.002229
Mn	      2.04667      2.13673     -4.13596         0.004003      0.071760     -0.002044
Ni	      4.09631      8.28151     -4.13595         0.003661     -0.095260     -0.001069
Ni	      2.04917      4.25981     -2.06722        -0.005835      0.077826      0.000855
O	      4.09765      4.17628     -2.06776         0.000821     -0.037467      0.000401
O	      2.04904      6.34929     -2.06668        -0.004968     -0.062653      0.000448
O	      4.09546      1.86086     -4.13634         0.006337      0.022248      0.003260
O	      2.04864      4.00984     -4.13666        -0.003267     -0.104789      0.004671
O	      2.04688      0.13285     -4.13608         0.002623      0.141192     -0.001688
O	      4.09736      6.36192     -4.13586        -0.002024     -0.035236     -0.004428
O	      2.04718      8.30767     -4.13593        -0.001773      0.037825      0.004023
O	      2.04673      2.05368     -2.06670        -0.000868     -0.035606     -0.004775
