# total energy = -793.69200114 eV
 
CRYSTAL
PRIMVEC
-0.004758 5.923486 5.918280 
15.520115 4.083565 -4.092667 
-0.355012 8.893390 -8.884766 
PRIMCOORD
169 1
Li	      7.87924      2.26363     -2.22374         0.008974      0.019382     -0.011345
Li	      7.80104     12.77536     -0.95060        -0.006005     -0.007664      0.002689
Li	      0.17131      0.31814     -0.31482        -0.013172      0.011795     -0.008490
Li	      0.04287      4.75398     -4.74297        -0.000701      0.001771     -0.005911
Li	      7.97598      4.30353     -0.34459        -0.018534     -0.014884      0.009583
Li	      7.80725      8.82631     -4.90505        -0.000896      0.001473     -0.005364
Li	      0.19636      2.29636      1.65196        -0.011050      0.003653     -0.003221
Li	      0.04201      6.72938     -2.77416        -0.002207      0.005395      0.001453
Li	      7.89022      6.12480      1.66160        -0.002637      0.017297     -0.012981
Li	      7.81864     10.81629     -2.92035        -0.013229     -0.008386     -0.006451
Li	      0.16379      4.26931      3.62973        -0.025354      0.013907     -0.012760
Li	      0.04162      8.70295     -0.80142         0.000425      0.006511      0.001029
Li	      9.91909      8.31033      1.54553        -0.019306      0.008828     -0.002431
Li	      5.46679      3.77151     -1.80516         0.010904     -0.007742      0.010667
Li	      5.32885      8.31675     -6.36221         0.002171      0.005588     -0.011064
Li	     13.30899      5.91887     -3.94789         0.003238     -0.004365      0.002808
Li	     13.17318     10.38162     -8.40998         0.009661     -0.014542      0.015189
Li	      5.48847      5.78464      0.12379         0.008334     -0.000098      0.012697
Li	      5.34201     10.32405     -4.41483        -0.004636     -0.005725     -0.036347
Li	     13.30982      7.89107     -1.98178        -0.003097     -0.003723      0.007500
Li	     13.17871     12.35695     -6.43842         0.013857     -0.018222      0.014357
Li	      5.52030      7.76357      2.08926        -0.015792     -0.018175      0.004437
Li	      5.32686     12.31670     -2.43238        -0.020227      0.004096      0.019151
Li	     13.30913      9.87262     -0.01080         0.003689     -0.005962      0.000895
Li	     13.18160     14.32810     -4.46208         0.018998     -0.020526      0.021529
Ni	     -0.04454      2.16410     -2.16108        -0.103583     -0.010280      0.015084
Ni	     -0.22763      6.59272     -6.57626        -0.090754     -0.036821      0.020599
Ni	      7.67649      4.17297     -4.16363        -0.120613     -0.044874      0.022797
Ni	      7.41508     14.62031     -2.80232        -0.084507     -0.047041      0.061333
Ni	     -0.04621      4.13861     -0.18917        -0.110320     -0.007471      0.008638
Ni	     -0.22421      8.56653     -4.60819        -0.101040     -0.031707      0.039312
Ni	      7.67510      6.13346     -2.19210        -0.098859     -0.041566      0.029668
Ni	      7.43688     10.65994     -6.71201        -0.109635     -0.023009      0.028543
Ni	     -0.04751      6.11285      1.78341        -0.109247     -0.014040      0.011581
Ni	     -0.23394     10.53860     -2.63599        -0.091595     -0.030462      0.035024
Ni	      7.68152      8.11836     -0.23871        -0.133680     -0.015915      0.046675
Ni	      7.42602     12.67723     -4.77230        -0.037939     -0.090741      0.077729
Ni	      1.91363      4.23041     -2.25536         0.065995      0.020742     -0.034822
Ni	      1.68368      8.69465     -6.70741         0.090188      0.060072     -0.002319
Ni	      9.64843      6.25026     -4.27781         0.034993     -0.005798     -0.047837
Ni	      9.45922     10.71693     -8.74350        -0.018092     -0.047005      0.003889
Ni	      1.91086      6.20515     -0.28363         0.080361      0.031469     -0.029140
Ni	      1.67498     10.67479     -4.73238         0.165143     -0.094624     -0.090194
Ni	      9.64676      8.22299     -2.30959         0.045215      0.054229      0.000459
Ni	      9.46560     12.69110     -6.77261        -0.017012      0.016953     -0.016704
Ni	      1.91260      8.17838      1.69104         0.070050      0.034845     -0.023452
Ni	      1.66155     12.64715     -2.76309         0.167219      0.008981      0.114075
Ni	      9.62525     10.23144     -0.36345         0.039268      0.036538     -0.032441
Ni	      9.47461     14.65329     -4.78449        -0.009726      0.033664      0.044292
Ni	      3.69647     10.33598      1.50418        -0.041342     -0.023728      0.033118
Ni	      3.48883      8.86920     -8.84961         0.009715     -0.010096     -0.044158
Ni	     11.41923      6.45755     -6.45800        -0.082824     -0.047776      0.032365
Ni	     11.32540     10.86854    -10.86133        -0.067899     -0.015544      0.030402
Ni	      3.69471      6.39172     -2.44448        -0.039618     -0.020273      0.030748
Ni	      3.50893     10.83460     -6.86011        -0.097774      0.044401      0.014288
Ni	     11.42345      8.42449     -4.48011        -0.102530     -0.041838      0.053341
Ni	     11.30686     12.85360     -8.90574        -0.076503     -0.039506      0.009513
Ni	      3.69510      8.36367     -0.46952        -0.025271     -0.027602      0.008955
Ni	      3.47581     12.82396     -4.90917        -0.441923      0.376695     -0.225429
Ni	     11.41520     10.40363     -2.51391        -0.074141     -0.040538      0.041491
Ni	     11.32781     14.80999     -6.92305        -0.058471      0.004541      0.008048
Ni	      5.65485      6.49310     -4.52156         0.102632      0.033061     -0.033172
Ni	      5.49523     10.86652     -8.88744         0.068853      0.053532     -0.045473
Ni	     13.37457      8.53010     -6.55865         0.105698      0.011691     -0.010340
Ni	     13.23301     12.97398    -10.99720         0.113726      0.037926     -0.042845
Ni	      5.65236      8.47406     -2.55535         0.094441      0.027119     -0.034895
Ni	      5.48950     12.84070     -6.88821        -0.048257      0.073244     -0.137025
Ni	     13.37221     10.50435     -4.58600         0.104362      0.003070     -0.015294
Ni	     13.23505     14.94609     -9.02677         0.109653      0.037150     -0.048259
Ni	      5.64826     10.44084     -0.58068         0.091716      0.033038     -0.038831
Ni	      5.49453     14.79763     -4.93429         0.008656      0.153455     -0.101670
Ni	     13.37126     12.47832     -2.61380         0.101538      0.017540     -0.008869
Ni	     13.25178     16.91880     -7.04810         0.102296      0.043084     -0.027955
O	      3.76074      4.50137     -2.52424         0.156783     -0.088360      0.097043
O	      3.52174      8.95541     -6.94818         0.122837     -0.152469      0.116762
O	     11.49226      6.53690     -4.56867         0.201219     -0.091532      0.094118
O	     11.41996     10.97358     -9.00022         0.214064     -0.052608      0.069686
O	      3.75704      6.47607     -0.55575         0.149359     -0.084954      0.086002
O	      3.50238     10.92904     -4.98066         0.112351     -0.930112      0.164507
O	     11.49088      8.51460     -2.59213         0.200956     -0.092081      0.086290
O	     11.44376     12.95528     -7.03220         0.152346     -0.095591      0.092571
O	      3.76173      8.44830      1.41879         0.152884     -0.098057      0.084263
O	      3.48762     12.90369     -3.02132         0.087378     -0.141495      0.949952
O	     11.47870     10.49471     -0.62764         0.176929     -0.091742      0.088804
O	     11.44839     14.91304     -5.04415         0.158452     -0.088331      0.079205
O	      5.54344     10.50511      1.33278         0.137326     -0.072425      0.130240
O	      5.50865     14.79090     -3.05631        -0.077714     -0.094092      0.115575
O	     13.26553      6.62752     -6.63031         0.171414     -0.084035      0.090968
O	     13.16491     11.07229    -11.05675         0.115714     -0.085332      0.069873
O	      5.53895      6.57336     -2.62364         0.148637     -0.100747      0.084548
O	      5.38448     10.96963     -6.87588         0.250459     -0.129778      0.087757
O	     13.26384      8.60071     -4.65463         0.201884     -0.084803      0.076720
O	     13.15073     13.04471     -9.10136         0.117210     -0.078108      0.086471
O	      5.54441      8.53557     -0.64334         0.129919     -0.134004      0.082898
O	      5.49635     12.90395     -4.99083         0.104752     -0.136145      0.129090
O	     13.26123     10.57520     -2.68383         0.178286     -0.076565      0.082939
O	     13.16690     15.01377     -7.12769         0.098173     -0.080017      0.086511
O	      3.62892      6.25604     -4.28711        -0.104782      0.125985     -0.134233
O	      3.58290     10.73147     -8.71940        -0.085123      0.152981     -0.190297
O	     11.34427      8.29674     -6.31984        -0.100678      0.139906     -0.149071
O	     11.22425     12.71753    -10.75707        -0.119154      0.094592     -0.088488
O	      3.62292      8.23450     -2.31247        -0.096283      0.134712     -0.137358
O	      3.60446     12.70924     -6.78795         0.046686     -0.034487     -0.868328
O	     11.34053     10.26472     -4.35285        -0.090194      0.140512     -0.143442
O	     11.22564     14.70136     -8.77382        -0.104050      0.111043     -0.090170
O	      3.62429     10.20548     -0.33831        -0.111838      0.126823     -0.123340
O	      3.63308     14.70371     -4.82117         0.020427      0.787598      0.016340
O	     11.34101     12.24615     -2.38250        -0.102873      0.137553     -0.131855
O	     11.24422     16.66903     -6.79790        -0.119179      0.083152     -0.106227
O	      5.96664      7.74682      3.95131         0.039977      0.163308     -0.116987
O	      5.85664     12.29942     -0.46718         0.074611      0.231713     -0.145500
O	     13.77182      3.97277     -3.98012         0.019048      0.151852     -0.151295
O	     13.60376      8.40997     -8.41108         0.043254      0.168837     -0.172198
O	      6.00103      3.92304      0.15131         0.032224      0.124774     -0.155521
O	      5.87597      8.36494     -4.42061         0.038332      0.133566     -0.173574
O	     13.77380      5.94934     -2.00927         0.018503      0.145418     -0.151294
O	     13.60291     10.38475     -6.43950         0.038658      0.160098     -0.175324
O	      5.94705      5.81059      2.08636         0.012102      0.157196     -0.138325
O	      5.87011     10.33736     -2.45335         0.042222      0.146134     -0.183706
O	     13.76926      7.92330     -0.03519         0.022986      0.149340     -0.149270
O	     13.60322     12.35655     -4.46721         0.035541      0.177619     -0.164768
O	     15.24886      6.36656     -4.39705        -0.034467     -0.164745      0.163470
O	     15.11250     10.78359     -8.80692        -0.020809     -0.138951      0.153058
O	      7.44995      4.26261     -2.29467        -0.032404     -0.138284      0.152933
O	      7.27217      8.72758     -6.86020        -0.029396     -0.159775      0.196038
O	     15.24895      8.33927     -2.42706        -0.035000     -0.163921      0.169275
O	     15.11084     12.75780     -6.83677        -0.022835     -0.154948      0.150434
O	      7.46000      6.25638     -0.32960        -0.026011     -0.176794      0.146962
O	      7.32723     10.80962     -4.82377        -0.010205     -0.110881      0.275630
O	     15.24332     10.31659     -0.45427        -0.030808     -0.177900      0.173057
O	     15.10689     14.73081     -4.85960        -0.033127     -0.156367      0.145525
O	      7.65950      8.20604      1.65226         0.000493     -0.133424      0.150218
O	      7.32812     12.75751     -2.90659         0.002000     -0.212255      0.128853
O	      1.97750      4.36299     -0.41298         0.094751     -0.130263      0.122284
O	      1.77847      8.82615     -4.85863         0.063806     -0.094060      0.091256
O	      9.72543      6.38182     -2.43724         0.098371     -0.163561      0.164313
O	      9.37832     10.84338     -6.89042         0.144236     -0.133332      0.144580
O	      1.97706      6.33589      1.55898         0.100798     -0.129594      0.132134
O	      1.76737     10.79662     -2.89487         0.102798     -0.091080      0.130926
O	      9.71622      8.38280     -0.44957         0.098690     -0.119295      0.159602
O	      9.29763     12.77871     -4.88651         0.008469     -0.172123      0.157935
O	      1.98076      2.38753     -2.38446         0.097752     -0.118991      0.125088
O	      1.77652      6.85581     -6.83140         0.072033     -0.114776      0.095500
O	      9.71211     10.31295      1.48583         0.111667     -0.161059      0.119902
O	      9.30284      8.82946     -8.82494         0.218310     -0.101791      0.086666
O	      0.06075      4.06557     -2.09031        -0.156749      0.078912     -0.082123
O	     -0.15173      8.50287     -6.50382        -0.126669      0.089794     -0.087865
O	      7.79516      6.06884     -4.09310        -0.164513      0.093242     -0.091649
O	      7.43368     10.59046     -8.65411        -0.103574      0.165053     -0.220098
O	      0.05883      6.04031     -0.11844        -0.150485      0.077361     -0.076529
O	     -0.16041     10.46340     -4.54596        -0.162880      0.088966     -0.070907
O	      7.79686      8.03800     -2.13965        -0.162841      0.087308     -0.098601
O	      7.38693     12.67091     -6.65815         0.124243      0.091175     -0.137380
O	      0.05947      8.01484      1.85504        -0.150487      0.080569     -0.079615
O	     -0.17155     12.43424     -2.55149        -0.140732      0.084615     -0.080175
O	      7.78311     10.04031     -0.16324        -0.136753      0.079405     -0.081278
O	      7.40903     14.57376     -4.70697         0.096603      0.121705     -0.147138
O	      1.84931     10.06499      1.77614        -0.171023      0.075285     -0.081144
O	      1.53556      8.59747     -8.57855        -0.163429      0.071433     -0.072491
O	      9.56712      6.18598     -6.17658        -0.173523      0.092253     -0.096953
O	      9.46767     16.55045     -4.73439        -0.101764      0.115605     -0.127692
O	      1.84904      6.11682     -2.17055        -0.173904      0.084116     -0.077232
O	      1.62566     10.59407     -6.63252        -0.316950      0.033162     -0.045636
O	      9.56679      8.12502     -4.18340        -0.176751      0.103013     -0.112400
O	      9.46475     12.61235     -8.66700        -0.102789      0.141469     -0.112918
O	      1.84975      8.09223     -0.19603        -0.183956      0.078709     -0.079430
O	      1.52565     12.54795     -4.63793        -0.083159      0.104101     -0.096280
O	      9.56331     10.12210     -2.24230        -0.163189      0.103621     -0.094680
O	      9.48039     14.60124     -6.68460        -0.107846      0.121990     -0.132448
