# total energy = -827.25415031 eV
 
CRYSTAL
PRIMVEC
0.001102 5.934817 5.927649 
16.285945 4.100973 -4.093169 
-0.169055 8.528193 -8.517126 
PRIMCOORD
175 1
Li	      8.33934      8.20748      3.63354         0.018164     -0.014640      0.006029
Li	      0.22265      4.58922     -4.58241        -0.160607      0.048792     -0.035462
Li	      8.31544      4.24199     -0.31752         0.012804      0.002611      0.020968
Li	      0.18960      2.01385      1.60292        -0.068541      0.053749     -0.061691
Li	      8.30312      6.22013      1.65808         0.015289     -0.006707      0.000781
Li	      8.23126     10.56234     -2.53031         0.027529      0.005611     -0.032741
Li	      0.21903      4.31713      3.78308        -0.065012      0.049773     -0.053326
Li	      9.92404      8.22587     -6.27168         0.038519      0.012701      0.006275
Li	      3.87086      1.91115     -1.89320         0.010623     -0.061099      0.058008
Li	     11.93842      9.84798      2.01075         0.015994      0.012927      0.001627
Li	     12.04603     14.27326     -2.47296         0.021208     -0.012449     -0.000116
Li	      3.83713      3.93231      0.00843        -0.016852     -0.018903      0.095612
Li	      3.85036      7.97756     -4.40122         0.000013      0.110573     -0.030438
Li	     11.84902      5.85870     -1.88467         0.013612      0.004130      0.009193
Li	     12.02318     10.38967     -6.32272         0.019770     -0.000619      0.035863
Li	      3.91017      5.93308      1.96205        -0.020357     -0.070028      0.014701
Li	      3.88244     10.30145     -2.11703        -0.018078     -0.006896     -0.106797
Li	     11.80851      7.81078      0.11362        -0.000859     -0.002473      0.001170
Li	     11.87563     12.21613     -4.29350         0.036924     -0.027286      0.000775
Li	      6.08072      4.00923     -2.02206         0.081565     -0.028132      0.112634
Li	      6.31741      8.00531     -6.08946         0.006104     -0.006847      0.013969
Li	     14.19991      5.96840     -4.03416         0.002925      0.030272      0.016162
Li	     14.28493     10.41385     -8.33371        -0.039408     -0.057587      0.058531
Li	      6.07157      5.93295     -0.05260        -0.032384      0.006866      0.007459
Li	      6.02495     10.10387     -4.20020        -0.002177     -0.007795     -0.016852
Li	     14.16184      7.99124     -2.04167        -0.026598      0.013280     -0.008164
Li	     14.42349     12.24637     -6.27350         0.010670     -0.069598      0.057942
Li	      6.07623      7.89652      1.93707         0.069847     -0.093316     -0.007900
Li	      5.97578     12.18993     -2.14753         0.002303      0.021249      0.001254
Li	     14.19852      9.97629     -0.04099         0.012790     -0.012287     -0.037167
Li	     14.20657     14.32354     -4.47609        -0.039816     -0.060442      0.064762
Ni	      0.00033      8.04235      3.82201         0.190820     -0.882913      1.127683
Ni	     -0.04781      6.48072     -6.45564         0.062656      0.058329     -0.072314
Ni	      8.10459     10.06874      1.77230         0.381681     -0.184500      0.131682
Ni	      8.03265      8.42563     -8.39289        -0.079812      0.008934      0.024051
Ni	     16.22433      8.23003     -4.25430        -0.136008      0.214095      0.128216
Ni	      0.01300      8.37088     -4.40349         0.353589     -0.627919      0.989269
Ni	      8.11660      6.10123     -2.17432        -0.037838      0.068072      0.104054
Ni	      8.04978     10.41931     -6.39317        -0.013389     -0.045604      0.045424
Ni	     16.20802     10.23916     -2.33286        -0.092001     -0.162434     -0.283358
Ni	      0.01591     10.36245     -2.41542         0.371817     -0.985763      0.639410
Ni	      8.10722      8.08782     -0.19935        -0.087717     -0.084354     -0.063235
Ni	      7.97619     12.44386     -4.48219         0.104787     -0.013417      0.014594
Ni	      1.97936      4.16043     -2.18266        -0.454823      0.229292      0.433823
Ni	      1.94740      8.47549     -6.47463         0.020905     -0.004178     -0.164423
Ni	     10.16758      6.27159     -4.29892        -0.008187      0.059857      0.006463
Ni	     10.03490     10.48351     -8.46542         0.039598      0.011385      0.006887
Ni	      1.94639      6.16409     -0.25681        -0.301312      0.149033     -0.024970
Ni	      1.96455     10.44675     -4.49024         0.025446      0.156217     -0.161347
Ni	     10.11047      8.25445     -2.33529        -0.030868      0.018350     -0.088849
Ni	     10.01459     12.45553     -6.48644         0.032479     -0.008474      0.040566
Ni	      1.96947      8.10142      1.75609        -0.393978     -0.533922     -0.280135
Ni	      1.96075     12.43035     -2.51708         0.054680      0.161793      0.006120
Ni	     10.13117     10.24205     -0.34408        -0.016917     -0.002883     -0.023789
Ni	     10.01773     14.44099     -4.50578         0.028790     -0.020512      0.009698
Ni	      3.92557     10.11893      1.69804        -0.253095      0.250537     -0.268327
Ni	      3.92308      8.51809     -8.46176         0.057630      0.023544     -0.107801
Ni	     12.18576     12.26065     -0.39406         0.044673      0.001629      0.001747
Ni	     11.99367     10.54032    -10.51659         0.083054     -0.017537      0.024618
Ni	      3.99791      6.12610     -2.18558        -0.177790      0.290132      0.363796
Ni	      3.89043     10.52426     -6.53209         0.110501      0.036026     -0.007669
Ni	     12.17837      8.30087     -4.34156         0.119215      0.154212      0.004294
Ni	     12.01542     12.52145     -8.52094         0.002723     -0.026038      0.050194
Ni	      3.99590      8.09740     -0.24125        -0.036350     -0.326058     -0.233845
Ni	      3.89207     12.50421     -4.56474         0.145913      0.052163     -0.030368
Ni	     12.12909     10.27800     -2.35394         0.134327      0.013696     -0.157312
Ni	     12.03608     14.48769     -6.54353        -0.028635     -0.037786      0.038005
Ni	      5.98838      6.14793     -4.20079         0.513215      0.355564     -0.104784
Ni	      5.95072     10.55364     -8.54247         0.148137      0.007772     -0.023036
Ni	     14.15872      8.43594     -6.43760         0.115427      0.112865      0.023610
Ni	     14.11650     12.62055    -10.61067         0.082653      0.030996     -0.077088
Ni	      6.03019      8.18239     -2.27103         0.152936      0.175891     -0.169418
Ni	      5.97815     12.56020     -6.63298         0.113762      0.011370      0.013465
Ni	     14.19095     10.38805     -4.44408         0.200514      0.156884     -0.152211
Ni	     14.13473     14.59068     -8.63292         0.010975      0.059940     -0.081538
Ni	      6.00447     10.15851     -0.27931         0.484834     -0.014985     -0.291400
Ni	      5.99155     14.51156     -4.59782         0.062166      0.048319     -0.066760
Ni	     14.19114     12.38420     -2.48280         0.123529     -0.041846     -0.085750
Ni	     14.12328     16.57649     -6.66764         0.091094      0.086400     -0.006046
O	      3.85784      4.25116     -2.16255         0.386842     -0.530548     -0.643950
O	      3.82099      8.60195     -6.58871         0.107030     -0.090495      0.293257
O	     12.27425      6.43247     -4.44716         0.040087     -0.259760      0.096675
O	     11.93840     10.60896     -8.59780         0.087334     -0.139927      0.120191
O	      3.98359      6.21416     -0.29708         0.574658     -0.072159      0.042069
O	      3.86382     10.59913     -4.64091         0.069852     -0.142496      0.166400
O	     12.22904      8.38558     -2.46957         0.082109     -0.191508      0.128910
O	     11.90704     12.56437     -6.57817         0.115753     -0.074222      0.086078
O	      3.85753      8.05232      1.64268         0.462187      0.637925      0.530328
O	      3.86838     12.56572     -2.65984         0.090836     -0.214258      0.100316
O	     12.25108     10.39133     -0.46846         0.005503     -0.123725      0.185682
O	     12.09270     14.57327     -4.65067         0.096018     -0.112214      0.127400
O	      5.98201     10.19633      1.61304        -0.821986     -0.336882      0.335804
O	      5.83633      8.63516     -8.45382         0.246250     -0.114227      0.059923
O	     14.10857      6.52573     -6.50625         0.145883     -0.126447      0.123882
O	     14.32952     10.71008    -10.67458        -0.115740     -0.075088      0.065490
O	      5.88669      6.08808     -2.30887         0.306996     -0.130972      0.188222
O	      5.99477     10.67764     -6.66408        -0.016982     -0.097847      0.127850
O	     14.10173      8.48550     -4.52814         0.043393     -0.174063      0.055915
O	     14.18963     12.68220     -8.70288         0.134310     -0.133269      0.048655
O	      5.92145      8.25485     -0.32068         0.261739     -0.156054      0.450267
O	      6.09077     12.60910     -4.69298        -0.221814     -0.133183      0.058222
O	     14.33454     10.46299     -2.53517        -0.128194     -0.043793      0.264117
O	     14.20713     14.67306     -6.73769         0.128291     -0.052314      0.129388
O	      4.12272      6.13220     -4.03631        -0.457808     -0.726498     -0.375239
O	      3.93150     10.39862     -8.40510        -0.107817      0.227523     -0.188816
O	     12.08987      8.21109     -6.23532        -0.085524      0.103261     -0.157390
O	     12.11644     12.42818    -10.42119        -0.084082      0.177227     -0.140497
O	      4.11038      8.01251     -2.12272        -0.231361      0.125330     -0.180413
O	      3.98970     12.44502     -6.44784        -0.137507      0.125779     -0.150464
O	     12.21066     10.19022     -4.24736        -0.345168      0.084847     -0.039737
O	     12.10230     14.41121     -8.44306        -0.076472      0.169197     -0.142213
O	      4.13243      9.95306     -0.26258        -0.503141      0.350903      0.754760
O	      4.04064     14.38915     -4.44001        -0.118866      0.119326     -0.233656
O	     12.18384     12.17167     -2.27092        -0.094504      0.226469     -0.106420
O	     12.12616     16.38562     -6.46849        -0.083155      0.107062     -0.189432
O	      6.10846      1.93195     -1.91434        -0.023730      0.246393     -0.180847
O	      5.96428      6.06170     -6.04895        -0.000486      0.315153     -0.234836
O	     14.08897      3.98592     -3.96945        -0.017389      0.077513     -0.084550
O	     14.15527      8.34438     -8.31484        -0.006150      0.160658     -0.145876
O	      6.15946      3.90545     -0.00171        -0.022971      0.162156     -0.211257
O	      5.91718      8.02466     -4.16741        -0.141786      0.004978     -0.491079
O	     14.29091      5.97783     -2.00367        -0.011924      0.074038     -0.097628
O	     14.02196     10.30618     -6.32623        -0.044006      0.123100     -0.317645
O	      6.13466      5.89764      1.91539        -0.015020      0.222359     -0.093008
O	      5.99556     10.21467     -2.14949        -0.099217      0.146800     -0.068585
O	     14.29226      7.95067     -0.03350        -0.009170      0.123255     -0.077207
O	     14.02578     12.25756     -4.34051        -0.035969      0.262633     -0.146967
O	     16.05275      6.39357     -4.35392        -0.127011     -0.119430      0.609231
O	     16.14955     10.61165     -8.72088        -0.044377     -0.548306     -0.063789
O	      8.02862      4.22373     -2.26702        -0.036175     -0.186964      0.057208
O	      8.04934      8.56183     -6.53572        -0.019987     -0.190390      0.168388
O	     16.05336      8.38386     -2.38923         0.013266     -0.128337      0.156695
O	     -0.08161      8.52880     -2.56945        -0.349332     -0.416346      0.381393
O	      8.00891      6.21258     -0.30613        -0.001628     -0.167116      0.162992
O	      7.87030     10.61402     -4.52748        -0.046126     -0.226661      0.174233
O	     16.07215     10.30914     -0.49639        -0.159311     -0.660141      0.043020
O	     16.12219     14.68933     -4.65303        -0.051423      0.056230      0.531406
O	      8.01361      8.18616      1.67423        -0.008254     -0.072429      0.194528
O	      7.84076     12.51854     -2.65314        -0.052520     -0.202692      0.224318
O	      1.94187      4.30913     -0.32986         0.290709     -0.320375     -0.096301
O	      2.03531      8.59301     -4.62741        -0.197847     -0.182243      0.165073
O	     10.09507      6.38080     -2.43903         0.034520     -0.151892      0.113729
O	     10.09879     10.57555     -6.60106         0.085212     -0.108627      0.072865
O	      1.82786      6.22468      1.64491         0.313296      0.064408      0.280337
O	      2.04449     10.58400     -2.63486        -0.202709     -0.176504      0.176824
O	     10.07319      8.36372     -0.45559         0.043807     -0.102680      0.187711
O	      9.91689     12.55066     -4.60100         0.148240     -0.117607      0.074501
O	      2.00982      8.22947      3.61704        -0.190927     -0.199596      0.263306
O	      1.84949      6.59299     -6.56541         0.168345     -0.112737      0.101413
O	     10.11361      4.41029     -4.40252         0.013708     -0.137877      0.121927
O	     10.08396      8.62363     -8.54722         0.053606     -0.129051      0.140519
O	      0.07662      4.01312     -2.07179         0.128428      1.077641     -0.389604
O	      0.07554      8.37023     -6.33550        -0.134218      0.195428     -0.889450
O	      7.93010      6.02043     -4.05986         0.044800      0.126953     -0.162531
O	      8.15875     10.34105     -8.32477        -0.134331      0.120327     -0.104572
O	     -0.05388      6.03741     -0.12402        -0.131164     -0.091710      0.075089
O	      0.10839     10.29343     -4.33673        -0.009026      0.979169     -0.982665
O	      7.96338      8.01717     -2.10069         0.276072     -0.015740      0.022002
O	      8.13752     12.34518     -6.38350        -0.123210      0.111287     -0.119501
O	      0.08410      8.02196      1.89191         0.010383      0.299882     -1.033043
O	      0.09246     12.29192     -2.41558        -0.137139      0.917774     -0.167493
O	      7.93988      9.99257     -0.15544         0.071017      0.174066     -0.078511
O	      7.95956     14.35004     -4.38072         0.021265      0.113458     -0.082525
O	      1.96937      9.94261      1.88861         0.785772      0.433483     -0.363294
O	      2.03586      8.36730     -8.35253        -0.287178      0.046932     -0.029004
O	     10.33039      6.20929     -6.17700        -0.123135      0.119274     -0.121660
O	      9.99673     10.37533    -10.32314        -0.121944      0.158563     -0.116211
O	      2.12276      6.03862     -2.12593        -0.174618      0.018055     -0.241094
O	      1.88653     10.32727     -6.35065        -0.114147      0.121596     -0.053751
O	     10.31826      8.15429     -4.23765        -0.251070      0.068360     -0.109971
O	      9.98859     12.34264     -8.33916        -0.125534      0.120082     -0.140345
O	      2.11353      8.02982     -0.12676        -0.313176      0.172717     -0.006805
O	      1.90631     12.31142     -4.37238        -0.108282      0.062881     -0.116108
O	     10.11857     10.10768     -2.19775        -0.171028      0.159315     -0.106820
O	      9.98668     14.30907     -6.37231        -0.124521      0.128029     -0.160707
