# total energy = -890.47284223 eV
 
CRYSTAL
PRIMVEC
0.001919 5.907531 5.907049 
16.805346 4.079926 -4.074224 
-0.052319 8.251364 -8.250237 
PRIMCOORD
185 1
Li	      8.45367      2.14337     -2.07971        -0.007602      0.015297     -0.020711
Li	      0.03422      5.96709      5.80087         0.001913      0.004340     -0.008651
Li	      8.47408      4.06159     -0.18838         0.009672      0.014604     -0.013348
Li	      8.35604      8.07262     -4.30155        -0.010211      0.023539     -0.019747
Li	     16.79667      6.14686     -2.16999         0.003947      0.013015     -0.020625
Li	      0.04752      5.97599     -2.45831        -0.017161      0.023331     -0.009974
Li	      8.39984      6.01179      1.82332         0.017412      0.022767     -0.026028
Li	      8.35205     10.22175     -2.15662        -0.010114      0.021441     -0.018980
Li	      0.03895      4.08049      3.87115         0.004166      0.013735     -0.011923
Li	     -0.01578      8.19183     -0.18486         0.004424      0.026508     -0.024975
Li	      2.07698      1.90663     -0.14438         0.015394     -0.014215      0.013652
Li	     10.45670      8.15366     -6.23735         0.003788      0.004047      0.006387
Li	      2.07169      4.06254      1.99656         0.018865     -0.008948      0.017533
Li	      2.05160      8.01633     -2.28226        -0.005418      0.008468     -0.020714
Li	     10.48047      5.94709     -0.19815         0.008242     -0.007311      0.009871
Li	     10.45659     10.15803     -4.22648         0.007004      0.000683     -0.001403
Li	      2.02533     10.33152      0.04720         0.015751      0.007896     -0.009389
Li	     10.47851      8.04773      1.92375         0.010501     -0.010141      0.004900
Li	     10.45280     12.15561     -2.23876        -0.005050     -0.008920     -0.003853
Li	      4.17030      7.89479      3.88389         0.006989     -0.002518      0.010318
Li	     12.54292      4.07745     -4.01763         0.000869     -0.002064      0.000459
Li	      4.18534      3.99168     -0.03990         0.000758     -0.005652     -0.004052
Li	      4.11285      7.94048     -4.33008        -0.002086     -0.003460     -0.004676
Li	     12.54948      6.01691     -2.10865         0.005005      0.004822      0.002785
Li	     12.59596     10.13926     -6.32730        -0.009668     -0.000472     -0.015792
Li	      4.18229      5.96386      1.95035         0.015502      0.003330     -0.009119
Li	      4.15704     10.18378     -2.15162        -0.005419      0.006497      0.005740
Li	     12.56952      8.01562     -0.15387        -0.006202     -0.008341     -0.000592
Li	     12.60899     12.25126     -4.22429        -0.014510      0.020516     -0.002724
Li	      6.27615      3.99628     -2.02907        -0.002691     -0.016266      0.007881
Li	      6.28497      8.04217     -6.15835        -0.001188     -0.036164      0.028381
Li	     14.71048      6.05362     -4.06266        -0.004423     -0.014453      0.017894
Li	     14.64114     10.06881     -8.22730         0.004829     -0.024076      0.007500
Li	      6.39843      5.96893     -0.06630         0.015233     -0.006902     -0.006717
Li	      6.38744     10.07104     -4.17816        -0.028255     -0.016856      0.020530
Li	     14.71152      8.04612     -2.12947        -0.000168     -0.007756      0.011648
Li	     14.74377     12.15142     -6.25396        -0.015271     -0.007654      0.011797
Li	      6.32528      7.91481      1.89955        -0.008100     -0.022865      0.004288
Li	      6.27536     12.08521     -2.11327        -0.005961     -0.020389      0.049306
Li	     14.66147      9.99957     -0.13083         0.001513     -0.021974      0.018698
Li	     14.70681     14.13220     -4.17427        -0.005892     -0.006612      0.025164
Ni	      0.03707      7.92579      3.88340        -0.072060     -0.009945      0.054740
Ni	     16.74578     16.19205     -4.38884        -0.031335     -0.073173      0.065662
Ni	      8.43422      4.06773     -4.05843        -0.070647     -0.048766      0.010420
Ni	      8.34082      8.23962     -8.20667        -0.006685     -0.089748      0.062833
Ni	      0.02073      4.00101     -0.05707        -0.039411     -0.008135      0.082929
Ni	     -0.00313      8.16112     -4.23974        -0.004574      0.017983      0.064053
Ni	      8.40796      6.02690     -2.10388        -0.029760     -0.031867      0.081602
Ni	      8.39025     10.20089     -6.23519        -0.039323     -0.002189      0.045319
Ni	      0.01514      5.97917      1.93012        -0.016975     -0.088217     -0.003117
Ni	      0.01175     10.12967     -2.26918        -0.028535     -0.055815      0.004186
Ni	      8.41691      7.99911     -0.12814        -0.049073     -0.081733      0.048263
Ni	      8.37627     12.16001     -4.27452        -0.027227     -0.048858      0.002530
Ni	      2.09517      4.07869     -2.09996        -0.017423      0.039206     -0.032035
Ni	      2.06840      8.19853     -6.21589        -0.013925     -0.050144      0.025770
Ni	     10.50076      6.11984     -4.15422        -0.049835     -0.014947     -0.024373
Ni	     10.48341     10.23142     -8.25893         0.011308     -0.026109     -0.017862
Ni	      2.06794      6.02740     -0.11370         0.056309     -0.001864     -0.009179
Ni	      2.07813     10.18835     -4.27278        -0.038832      0.005124      0.002768
Ni	     10.47293      8.10048     -2.18158        -0.019613      0.017749      0.000533
Ni	     10.50282     12.20951     -6.28280        -0.035705     -0.002363      0.032932
Ni	      2.11215      7.98918      1.86173        -0.035558      0.019871      0.009806
Ni	      2.05535     12.16006     -2.30576         0.031362      0.025052      0.022121
Ni	     10.49448     10.06975     -0.22200        -0.042768      0.030442     -0.031446
Ni	     10.48789     14.16100     -4.30764        -0.040621     -0.019600      0.030673
Ni	      4.19191      9.99183      1.81090        -0.011715      0.028190     -0.029545
Ni	      4.12528      8.24892     -8.23958         0.110181     -0.008549      0.003605
Ni	     12.59371      6.15848     -6.14724         0.009090      0.013282     -0.014929
Ni	     12.53629     10.28685    -10.27656         0.052334     -0.011756      0.006602
Ni	      4.13176      6.05941     -2.13641         0.020373      0.028631      0.079395
Ni	      4.10749     10.23083     -6.27707         0.046676      0.011907      0.005982
Ni	     12.57654      8.12565     -4.17447        -0.001847      0.009169      0.045251
Ni	     12.53699     12.27378     -8.33354         0.033386      0.032537      0.005790
Ni	      4.12880      8.02897     -0.16055         0.037849     -0.080504     -0.028222
Ni	      4.11363     12.21476     -4.31363         0.043954      0.013209     -0.020841
Ni	     12.57533     10.09528     -2.21678        -0.005460     -0.040696     -0.013721
Ni	     12.53768     14.23765     -6.36060         0.040571      0.000009     -0.033154
Ni	      6.25226      6.12165     -4.15764         0.059176      0.022485     -0.043477
Ni	      6.25003     10.25821     -8.26430         0.016277      0.045492     -0.047280
Ni	     14.66669      8.18635     -6.22502         0.042315      0.042700     -0.012334
Ni	     14.67086     12.33098    -10.33828         0.046582      0.019427     -0.056009
Ni	      6.24227      8.12580     -2.21528         0.034160      0.038033     -0.035758
Ni	      6.23458     12.25903     -6.35228         0.036589      0.044194     -0.049445
Ni	     14.64882     10.18966     -4.28493         0.096124      0.047823     -0.046847
Ni	     14.59742     14.33924     -8.41801         0.106789      0.040159     -0.031371
Ni	      6.23631     10.07010     -0.21902         0.043342      0.039657     -0.028393
Ni	      6.26647     14.18843     -4.35026         0.067623      0.060694     -0.058925
Ni	     14.67015     12.13905     -2.27580         0.038003      0.015905     -0.044121
Ni	     14.65697     16.25023     -6.41311         0.017764      0.046164     -0.030430
O	      4.20968      4.16215     -2.21528         0.071425     -0.185661      0.109947
O	      4.12942      8.36962     -6.34821         0.096723     -0.152175      0.151779
O	     12.61772      6.21687     -4.26382         0.092728     -0.152661      0.107408
O	     12.57754     10.40722     -8.39578         0.075605     -0.154522      0.160447
O	      3.98492      6.11223     -0.21413         0.102642     -0.102827      0.085866
O	      3.96131     10.27841     -4.35113         0.128159     -0.119474      0.113544
O	     12.58142      8.20675     -2.28566         0.085756     -0.128315      0.126926
O	     12.57684     12.33674     -6.42047         0.097887     -0.136886      0.122754
O	      4.21201      8.10645      1.73674         0.078107     -0.123872      0.170296
O	      4.15345     12.28258     -2.45787         0.082949     -0.167162      0.146932
O	     12.61343     10.18489     -0.30749         0.086224     -0.104468      0.149790
O	     12.56947     14.30152     -4.48970         0.070773     -0.140994      0.152873
O	      6.09719     10.06098      1.70317         0.160876     -0.106329      0.142535
O	      6.42349      8.32819     -8.21524        -0.175768     -0.103986      0.122408
O	     14.49728      6.25809     -6.24041         0.162732     -0.123496      0.114484
O	     14.82338     16.23335     -4.48689        -0.171093     -0.106211      0.132434
O	      6.24934      6.22478     -2.25459         0.022712     -0.127537      0.134815
O	      6.22699     10.36470     -6.36467         0.019386     -0.126491      0.144825
O	     14.70870      8.29294     -4.31857         0.003715     -0.122660      0.115433
O	     14.69932     12.46012     -8.46976        -0.016319     -0.126823      0.138106
O	      6.24331      8.15722     -0.31484         0.018540     -0.142285      0.135576
O	      6.24309     12.30863     -4.44779        -0.002786     -0.123134      0.123370
O	     14.69269     10.23835     -2.39495         0.011877     -0.129021      0.122150
O	     14.68662     14.36390     -6.53368        -0.004171     -0.138132      0.121519
O	      4.23120      5.94960     -3.98589        -0.082270      0.142010     -0.172926
O	      4.15460     10.13388     -8.18943        -0.071809      0.149298     -0.127105
O	     12.56644      8.03206     -6.03218        -0.071302      0.126689     -0.151223
O	     12.68648     12.17285    -10.23023        -0.095330      0.133024     -0.126608
O	      4.12215      7.96740     -2.06335        -0.078715      0.159591     -0.158165
O	      4.11304     12.12776     -6.20464        -0.053664      0.137109     -0.120786
O	     12.57339     10.04073     -4.13549        -0.076056      0.147602     -0.133348
O	     12.53418     14.17773     -8.27256        -0.080177      0.123759     -0.122876
O	      4.13462      9.88962     -0.06228        -0.084866      0.170193     -0.114316
O	      4.31948     14.12499     -4.21765        -0.110844      0.122878     -0.134219
O	     12.56650     11.95411     -2.11627        -0.074120      0.151978     -0.132561
O	     12.56616     16.14315     -6.26117        -0.077222      0.124542     -0.131320
O	      6.31936      7.80469      4.00811         0.014232      0.126922     -0.146566
O	      6.25196      6.01161     -5.99748        -0.001133      0.157150     -0.169058
O	     14.70420      3.97239     -3.95146        -0.009861      0.144977     -0.154624
O	     14.68524     13.97822     -2.16127        -0.007424      0.194173     -0.183860
O	      6.26697      3.90463      0.01124        -0.004447      0.128931     -0.148031
O	      6.25635      8.05456     -4.10526        -0.000328      0.112963     -0.136308
O	     14.70871      6.02549     -2.03674        -0.005475      0.153433     -0.155724
O	     14.71125     10.08635     -6.16664        -0.005502      0.144782     -0.141115
O	      6.28894      5.88043      1.91091        -0.004472      0.160408     -0.132379
O	      6.25080     10.02479     -2.12505         0.002389      0.130893     -0.148200
O	     14.68274      7.95982     -0.05899        -0.006313      0.163352     -0.155328
O	     14.71144     12.07477     -4.18670        -0.004856      0.139261     -0.142754
O	     16.78890      6.17906     -4.21675        -0.002680     -0.161759      0.130504
O	     16.63680     10.41237     -8.44924        -0.031771     -0.187914      0.179893
O	      8.25244      4.15109     -2.20116        -0.003351     -0.165635      0.175471
O	      8.38627      8.35172     -6.34179        -0.005831     -0.167877      0.170925
O	     16.79811      8.17614     -2.24552         0.010663     -0.140530      0.140594
O	      0.00082      8.23509     -2.33625        -0.010975     -0.143847      0.145340
O	      8.41234      6.10513     -0.21631         0.013528     -0.122753      0.132129
O	      8.39359     10.25928     -4.33750        -0.003683     -0.139133      0.140064
O	     16.63419     10.15427     -0.27502        -0.011717     -0.167883      0.186487
O	     -0.02552     10.24287     -0.41727        -0.010929     -0.163969      0.165339
O	      8.39793      8.09118      1.77347         0.007984     -0.144830      0.140912
O	      8.35060     12.27555     -2.42292        -0.012201     -0.158867      0.159551
O	      2.10637      4.14795     -0.17781         0.098127     -0.148827      0.130836
O	      2.08950      8.32221     -4.34894         0.065591     -0.085427      0.174522
O	     10.49248      6.23548     -2.25811         0.100596     -0.151934      0.142120
O	     10.50279     10.29915     -6.37771         0.063196     -0.117419      0.154193
O	      2.10525      6.10278      1.74801         0.098993     -0.165804      0.139286
O	      2.10203     10.27139     -2.40173         0.074850     -0.159765      0.120772
O	     10.49923      8.15283     -0.26799         0.107104     -0.121913      0.133067
O	     10.48653     12.28205     -4.38168         0.061344     -0.153610      0.116452
O	      2.10827      2.21997     -2.15828         0.093985     -0.170890      0.156415
O	      1.82824     12.20361     -0.41500         0.172349     -0.110168      0.103591
O	     10.50006     10.14231      1.63530         0.102997     -0.142854      0.159652
O	     10.23659     14.20464     -2.39335         0.171211     -0.092307      0.091353
O	     -0.00014      3.91684     -1.92590        -0.014291      0.129465     -0.139132
O	     16.74432     12.16853    -10.23012        -0.020368      0.140096     -0.157484
O	      8.36451      5.95571     -3.97779        -0.007713      0.152152     -0.138256
O	      8.36263     10.12245     -8.14394        -0.005146      0.151254     -0.138378
O	      0.17692      5.93697     -0.00270        -0.161022      0.106226     -0.100036
O	      0.16822     10.08726     -4.18614        -0.118981      0.103038     -0.113387
O	      8.39251      7.95204     -2.04312        -0.037353      0.126248     -0.142581
O	      8.37958     12.09938     -6.17539        -0.019664      0.130892     -0.128386
O	     -0.01095      7.84444      2.00593         0.000352      0.154302     -0.155982
O	     -0.03834     12.03895     -2.20379        -0.016892      0.155755     -0.136018
O	      8.37579      9.87174     -0.05141        -0.002347      0.135419     -0.130192
O	      8.29460     14.08100     -4.19392         0.040179      0.133665     -0.125057
O	      2.31613      9.86987      1.91060        -0.156492      0.120334     -0.123633
O	      2.05737      8.13736     -8.07529        -0.105998      0.152934     -0.159650
O	     10.71493      6.08469     -6.07158        -0.148737      0.097927     -0.095958
O	     10.46918     16.01822     -4.23117        -0.092090      0.160980     -0.146754
O	      2.05327      5.94843     -1.97885        -0.118818      0.173361     -0.108622
O	      2.03550     10.12246     -6.14882        -0.080729      0.134597     -0.149371
O	     10.47367      8.00452     -4.09062        -0.079550      0.154643     -0.137576
O	     10.47411     12.14124     -8.14474        -0.096910      0.133682     -0.160440
O	      2.05089      7.89935     -0.02961        -0.121944      0.126376     -0.153869
O	      2.05282     12.05234     -4.20093        -0.092256      0.108039     -0.154675
O	     10.46916      9.99887     -2.10417        -0.077898      0.140757     -0.140277
O	     10.46188     14.11863     -6.21800        -0.099440      0.142032     -0.132256
