# total energy = -907.45589372 eV
 
CRYSTAL
PRIMVEC
0.000127 5.909154 5.909676 
17.076371 4.032413 -4.032529 
-0.055221 8.167445 -8.167682 
PRIMCOORD
188 1
Li	      8.52142      7.96621      3.83422        -0.002378      0.024504     -0.030972
Li	      8.57574     12.07575     -0.25803         0.003900      0.023839     -0.016291
Li	     17.03529      4.04491     -4.04494        -0.000287      0.020930     -0.014962
Li	     16.95885      8.21601     -8.15811         0.011346      0.007643     -0.008494
Li	      8.52259      4.04517     -0.08964        -0.001155      0.030007     -0.027071
Li	      8.45269      8.14383     -4.19686        -0.035410      0.016320     -0.020476
Li	     17.03033      6.00817     -2.07335         0.001738      0.010376     -0.016901
Li	     16.94691     10.11904     -6.24648        -0.008288      0.006308     -0.004474
Li	      8.42225      6.01126      1.87079         0.013813      0.022776     -0.022839
Li	      8.41944     10.10618     -2.23213         0.014807      0.018405     -0.018717
Li	     17.02012      7.97253     -0.09000         0.006816      0.018282     -0.019557
Li	     16.95994     12.09521     -4.20840         0.015693      0.014224     -0.017540
Li	      2.08794      1.98636     -0.02433         0.012888     -0.010802      0.004879
Li	      2.09416      6.08533     -4.11856         0.002917     -0.003418      0.004688
Li	     10.65901      4.03343     -2.07201        -0.002044      0.006343     -0.003720
Li	     10.92797      8.24602     -6.27298        -0.006971      0.007881     -0.006820
Li	      2.10619      3.94880      1.95563         0.016465     -0.001076      0.008815
Li	      2.05004      8.03469     -2.13992         0.005686     -0.003866      0.003689
Li	     10.67399      6.02367     -0.10670        -0.000770      0.001328     -0.000212
Li	     10.88573     10.20070     -4.28176        -0.005899     -0.005494     -0.002614
Li	      2.09665      5.93207      3.92950         0.007558     -0.003882      0.004518
Li	      2.05362     10.01991     -0.15488         0.005516     -0.006932      0.001639
Li	     10.66566      7.98787      1.86112        -0.004890     -0.001980      0.001257
Li	     10.89499     12.16224     -2.32202         0.008965      0.000974      0.000388
Li	      4.25785      7.94538      3.87156         0.000297      0.000213     -0.002715
Li	      4.23888     12.02531     -0.20973        -0.004360     -0.002642     -0.002324
Li	     12.84894      4.03058     -4.01289        -0.003606     -0.000301     -0.005502
Li	      4.26446      4.00676     -0.06459        -0.005047      0.001877     -0.002340
Li	      4.23849      8.08806     -4.14720        -0.004826      0.000983     -0.000787
Li	     12.85743      5.97804     -2.07120        -0.003047      0.003884     -0.002543
Li	      4.26989      5.97030      1.90819        -0.000759      0.005503     -0.001370
Li	      4.23528     10.05314     -2.17246        -0.006665      0.004122     -0.000260
Li	     12.85715      7.97888     -0.08389        -0.005237      0.001085      0.001451
Li	      6.41425      4.01425     -2.04513         0.003210     -0.012472      0.012623
Li	      6.39246      8.08857     -6.12612        -0.010874     -0.015458      0.006752
Li	     14.96987      5.98646     -4.03324        -0.009995     -0.017443      0.017377
Li	      6.39613      5.98297     -0.08011         0.000573     -0.015817      0.014575
Li	      6.37470     10.06470     -4.15535        -0.017286     -0.011082      0.016821
Li	     14.96098      7.94778     -2.03147        -0.003211     -0.019520      0.012688
Li	     14.64252     11.85812     -6.11181        -0.007935     -0.015973      0.017007
Li	      6.39997      7.95953      1.89657         0.002230     -0.015240      0.016368
Li	      6.38270     12.03502     -2.17767        -0.008305     -0.016094      0.015937
Li	     14.96363      9.93172     -0.07552        -0.004940     -0.015341      0.023526
Li	     14.64408     13.99451     -3.98185        -0.005205     -0.014817      0.017329
Ni	     17.05983      6.03766     -6.03631        -0.029310     -0.052083      0.053980
Ni	     17.01093     10.11931    -10.11410        -0.037010     -0.042018      0.029790
Ni	      8.55664      9.96976      1.84738        -0.048345     -0.039966      0.033586
Ni	      8.53397     14.04493     -2.23447        -0.072537     -0.032263      0.044900
Ni	      0.03837      3.96395     -0.02301        -0.113056     -0.026744      0.042607
Ni	     17.01137     12.08256     -8.14945        -0.036225     -0.026867      0.047580
Ni	      8.55620      6.03944     -2.09246        -0.034097     -0.033568      0.050671
Ni	      8.53301     10.11613     -6.16498        -0.074660     -0.042236      0.034906
Ni	      0.04983      5.92337      1.95458        -0.118637     -0.045762      0.032915
Ni	     -0.00816     10.01529     -2.13682        -0.114147     -0.043763      0.038111
Ni	      8.55620      8.00160     -0.12780        -0.038060     -0.044324      0.032269
Ni	      8.52129     12.07656     -4.19834        -0.061650     -0.048259      0.036542
Ni	      2.11514      4.03642     -2.06703         0.002084     -0.003841     -0.002736
Ni	      2.08447      8.12417     -6.15462        -0.020609     -0.011124      0.002166
Ni	     10.71362      6.04673     -4.08181        -0.051201      0.018623      0.008141
Ni	     10.61912     10.15671     -8.18786        -0.098630     -0.045925      0.042694
Ni	      2.12238      6.00311     -0.09346        -0.017285      0.002011     -0.001031
Ni	      2.09125     10.09276     -4.18301        -0.033013      0.000012      0.002185
Ni	     10.74215      8.03004     -2.12112        -0.077430      0.006600     -0.012396
Ni	     10.68779     12.11654     -6.21607        -0.056175      0.025614      0.020599
Ni	      2.11825      7.97381      1.87608        -0.004841      0.002697      0.001402
Ni	      2.09142     12.06242     -2.21454        -0.030083      0.000715      0.006173
Ni	     10.71171      9.99362     -0.13870        -0.040516     -0.003890     -0.017293
Ni	     10.68746     14.09203     -4.23566        -0.053374     -0.011338     -0.019824
Ni	      4.22880      4.07600     -4.07569         0.028453      0.004714     -0.003966
Ni	      4.19795      8.16051     -8.16052         0.017397      0.003871     -0.003701
Ni	     12.81828     11.94677     -0.12857         0.008523     -0.006344      0.017537
Ni	     12.71649     10.19302    -10.18590         0.032482      0.020736      0.019709
Ni	      4.22969      6.04471     -2.10501         0.029054      0.010044     -0.004182
Ni	      4.19805     10.12936     -6.19038         0.022604      0.006900     -0.002177
Ni	     12.82139      8.01389     -4.07694        -0.012228     -0.026631      0.006321
Ni	     12.71671     12.15530     -8.22448         0.033906     -0.017236     -0.030372
Ni	      4.22932      8.01382     -0.13477         0.026274      0.003325     -0.009256
Ni	      4.20441     12.09836     -4.21895         0.007844      0.002934     -0.008609
Ni	     12.81754      9.98455     -2.10408        -0.007208     -0.022006      0.020709
Ni	     12.72613     14.14661     -6.26823        -0.004244      0.015052     -0.017884
Ni	      6.36846      6.10512     -4.13564         0.026571      0.047288     -0.051722
Ni	      6.30350     10.19212     -8.22209         0.090200      0.039908     -0.045019
Ni	     14.84223      8.11204     -6.14967         0.048049      0.040953     -0.024960
Ni	     14.86777     12.18237    -10.21402         0.019891      0.042009     -0.049143
Ni	      6.36340      8.07504     -2.16588         0.031870      0.047731     -0.045427
Ni	      6.33610     12.15311     -6.24556         0.030174      0.046519     -0.050920
Ni	     14.85032     10.06055     -4.13894         0.042177      0.011859      0.028032
Ni	     14.83854     14.15556     -8.24989         0.049955      0.064748     -0.023096
Ni	      6.36507     10.04467     -0.19411         0.030329      0.049043     -0.047619
Ni	      6.33686     14.12455     -4.27359         0.029307      0.055771     -0.049402
Ni	     14.86626     12.02525     -2.18255         0.032971     -0.030668     -0.027906
Ni	     14.83865     16.13053     -6.27863         0.046084      0.026362     -0.060715
O	      4.25550      4.14959     -2.17767         0.073457     -0.129821      0.134065
O	      4.22073      8.23607     -6.26764         0.062771     -0.122295      0.128007
O	     12.81926      6.12632     -4.13971         0.074190     -0.133829      0.153018
O	     12.47290     10.26802     -8.29912         0.209119     -0.095052      0.099441
O	      4.25116      6.11331     -0.20517         0.077388     -0.128896      0.132496
O	      4.21638     10.20107     -4.29072         0.072105     -0.121247      0.127812
O	     12.83892      8.09463     -2.18797         0.087707     -0.126149      0.136632
O	     12.71710     12.29910     -6.37462         0.103125     -0.130513      0.170456
O	      4.25648      8.08703      1.76130         0.070019     -0.135749      0.131544
O	      4.21597     12.17033     -2.32160         0.071652     -0.131457      0.127005
O	     12.81454     10.04933     -0.21703         0.091278     -0.147019      0.121262
O	     12.71636     14.25140     -4.42003         0.101565     -0.163601      0.129642
O	      6.39535      4.20312     -4.20298         0.006334     -0.117556      0.120252
O	      6.36473      8.29703     -8.28189         0.006714     -0.118472      0.119555
O	     14.91333      6.19383     -6.18044         0.024416     -0.122680      0.144831
O	     14.83132     16.20204     -4.41375         0.023016     -0.124879      0.150106
O	      6.39630      6.17515     -2.23018         0.007219     -0.123653      0.117443
O	      6.36532     10.25190     -6.32678         0.005759     -0.119655      0.122091
O	     14.71631      8.12211     -4.19573         0.169152     -0.115985      0.095249
O	     14.83132     12.28977     -8.32351         0.019571     -0.148367      0.129871
O	      6.39613      8.13883     -0.26472         0.002322     -0.119051      0.124186
O	      6.34087     12.21804     -4.33892         0.022641     -0.120905      0.125096
O	     14.71020     10.08673     -2.20445         0.179060     -0.097776      0.105095
O	     14.62884     14.21276     -6.33270         0.164080     -0.104201      0.110725
O	      4.24025      5.97589     -4.00604        -0.060589      0.123685     -0.123662
O	      4.21848     10.06412     -8.09339        -0.066649      0.125667     -0.123289
O	     12.79838      7.90469     -5.91926        -0.078032      0.153441     -0.130062
O	     12.70917     12.08230    -10.11421        -0.051454      0.154281     -0.142692
O	      4.23762      7.94200     -2.03221        -0.060710      0.127511     -0.127121
O	      4.20685     12.02359     -6.12012        -0.064962      0.129565     -0.127720
O	     12.79142      9.86333     -3.95465        -0.080261      0.142038     -0.142180
O	     12.71329     14.07248     -8.15948        -0.064256      0.136257     -0.118308
O	      4.24110      9.91351     -0.06455        -0.062809      0.120523     -0.126601
O	      4.20625     13.99886     -4.14498        -0.065558      0.118430     -0.126619
O	     12.79504     11.82778     -1.99573        -0.066104      0.135859     -0.154764
O	     12.71276     16.03752     -6.19258        -0.069688      0.117210     -0.142341
O	      6.40646      1.94053     -1.93405        -0.004817      0.134655     -0.146144
O	      6.37501      6.02260     -6.02246        -0.004513      0.139845     -0.139688
O	     14.95108      3.94588     -3.93991         0.001999      0.128358     -0.121543
O	     15.03685     13.85522     -2.08861         0.035334      0.177949     -0.161307
O	      6.40944      3.90531      0.02898        -0.001326      0.138893     -0.132354
O	      6.36756      7.99491     -4.05465         0.001302      0.127672     -0.138045
O	     14.95379      5.90459     -1.97193        -0.005325      0.136090     -0.142031
O	     15.01355      9.96274     -5.96658         0.035966      0.161075     -0.191803
O	      6.38419      5.87608      2.00242         0.008133      0.130776     -0.122779
O	      6.36374      9.96405     -2.08402         0.006594      0.136473     -0.127558
O	     14.93575      7.87578      0.00322         0.000745      0.120960     -0.124052
O	     15.01184     11.93029     -4.05768         0.021092      0.172710     -0.151251
O	     17.06481      6.12207     -4.14576         0.013165     -0.151801      0.136670
O	      0.10494      6.18755     -4.21781         0.022635     -0.155775      0.158464
O	      8.52796      4.14494     -2.17392         0.003203     -0.128821      0.128598
O	      8.48995      8.23156     -6.25122        -0.011961     -0.136251      0.131821
O	     17.05091      8.07553     -2.17181         0.008355     -0.141149      0.144208
O	     -0.01764      8.14328     -2.23331         0.013299     -0.157231      0.142457
O	      8.54765      6.11392     -0.19671        -0.002885     -0.121581      0.121261
O	      8.50824     10.18236     -4.27035        -0.021082     -0.127636      0.133077
O	     17.06632     10.05095     -0.20222        -0.002011     -0.135443      0.149391
O	     -0.01754     10.11320     -0.26641         0.014947     -0.146141      0.153659
O	      8.53488      8.06675      1.76978        -0.005190     -0.120199      0.128899
O	      8.50264     12.15398     -2.31173        -0.021631     -0.127634      0.130956
O	      2.12432      4.10430     -0.15920         0.068646     -0.137490      0.128276
O	      2.10710      8.20996     -4.25828         0.050146     -0.139065      0.123874
O	     10.67455      6.13359     -2.19204         0.059450     -0.140475      0.133040
O	     10.56436     10.22488     -6.30994         0.086139     -0.137984      0.137727
O	      2.12888      6.06378      1.80721         0.075092     -0.119935      0.136544
O	      2.08385     10.16020     -2.28087         0.071482     -0.123814      0.127702
O	     10.67144      8.10663     -0.22923         0.075370     -0.139198      0.148982
O	     10.57422     12.21400     -4.33597         0.069195     -0.146161      0.147667
O	      2.13690      2.14038     -2.13787         0.059293     -0.134682      0.132542
O	      2.10675     12.13724     -0.33212         0.052639     -0.123336      0.136850
O	     10.65048      4.14228     -4.14059         0.077090     -0.145572      0.127956
O	     10.56665      8.27739     -8.24889         0.081285     -0.140588      0.137120
O	     -0.00218      3.90548     -1.91145        -0.020040      0.121708     -0.122633
O	     17.01761     12.02645    -10.05773        -0.009836      0.126959     -0.122602
O	      8.56471      5.98184     -3.99344        -0.006010      0.117718     -0.123522
O	      8.64498     10.05986     -8.09441        -0.139358      0.105205     -0.106443
O	     17.03705      9.87737     -3.95934        -0.000699      0.116852     -0.132251
O	     16.98333     13.99430     -8.06270        -0.003137      0.111346     -0.134056
O	      8.58299      7.95921     -2.04998        -0.019645      0.118833     -0.120239
O	      8.49528     12.02634     -6.10218         0.000240      0.126938     -0.121829
O	     -0.00079      7.80646      2.01213        -0.026666      0.122258     -0.118942
O	     16.98283     15.94276     -6.11669        -0.002749      0.125614     -0.116115
O	      8.56353      9.90149     -0.06695        -0.006153      0.125164     -0.122116
O	      8.49754     13.98330     -4.14760        -0.003800      0.122766     -0.129983
O	      2.12491      9.87181      1.94391        -0.073310      0.125355     -0.126377
O	      2.08153      8.05586     -8.05364        -0.072443      0.127387     -0.126716
O	     10.69644      5.95851     -5.95738        -0.056948      0.148596     -0.151218
O	     10.58020     10.07033    -10.06248        -0.063665      0.151216     -0.169293
O	      2.12091      5.93100     -1.98686        -0.061493      0.120633     -0.128709
O	      2.08128     10.02300     -6.08536        -0.072613      0.119727     -0.128733
O	     10.90773      7.96571     -4.02146        -0.119235      0.112088     -0.124815
O	     10.57904     12.03244     -8.10614        -0.062184      0.168768     -0.155901
O	      2.11873      7.89791     -0.01884        -0.074936      0.127474     -0.124139
O	      2.07588     11.98692     -4.10840        -0.068277      0.125234     -0.122444
O	     10.90867      9.93315     -2.05997        -0.137016      0.122748     -0.105358
O	     10.81549     14.05597     -6.17960        -0.132127      0.118923     -0.112267
