# total energy = -584.67563539 eV
 
CRYSTAL
PRIMVEC
0.006778 4.016484 4.033170 
17.324207 4.079007 -4.068632 
0.037853 8.042769 -8.076495 
PRIMCOORD
122 1
Li	      8.61647      6.06580      1.98019         0.011953      0.022130     -0.029743
Li	      8.60731      6.08606     -6.09769         0.011035      0.009834     -0.009567
Li	      0.30715      7.92916     -7.96010         0.006754      0.041671     -0.044073
Li	     17.22250     12.03302     -4.17448         0.034602      0.028816     -0.023875
Li	      8.60282      4.05987     -0.03287         0.020658      0.021263     -0.030907
Li	      8.59469      8.09840     -4.08246         0.017080      0.014016     -0.010466
Li	      0.35648      9.89942     -5.94873        -0.000495      0.049837     -0.039405
Li	      0.34805      6.18066     -1.88275         0.000406      0.033383     -0.016036
Li	      2.49276      2.07675     -0.06075        -0.042939      0.013539      0.000203
Li	      2.44804      6.11044     -4.09806        -0.050574     -0.003527     -0.008018
Li	     10.66401      4.00200     -1.98765         0.014765     -0.008144     -0.004357
Li	     10.73461      8.06153     -6.06908         0.006979     -0.017471      0.012638
Li	      2.49669      4.10165      1.95196        -0.055340      0.013428     -0.012494
Li	      2.10168      8.13231     -2.01204        -0.001202     -0.001639      0.008362
Li	     10.68988      6.00309      0.01728         0.005643     -0.009761     -0.004096
Li	     10.72582     10.06843     -4.04665         0.006855     -0.012915      0.015347
Li	      4.50000      2.05151     -2.03384        -0.019818      0.029098     -0.026460
Li	      4.50577     10.10480     -2.07534        -0.023135     -0.004452      0.004684
Li	     12.70412      3.99805     -3.98730         0.014266     -0.017379      0.009663
Li	     13.11153     12.02497     -4.08811        -0.018783      0.000766     -0.000033
Li	      4.50291      4.05888     -0.03412        -0.030414      0.016445     -0.014945
Li	      4.47174      8.09950     -4.09170        -0.015934      0.007155     -0.001470
Li	     12.70654      6.01090     -1.99753        -0.007981     -0.019530      0.009770
Li	     12.76996     10.02833     -6.03090         0.004335     -0.007071      0.012875
Li	      6.54260      4.02643     -2.01474        -0.003178     -0.013010      0.015299
Li	      6.54521      8.04508     -6.05887        -0.006959     -0.010299      0.018721
Li	     14.86250      6.23071     -4.17200         0.043468     -0.053394      0.038767
Li	     14.85278      9.95476     -8.24646         0.026165     -0.030878      0.009517
Li	      6.54666      6.03821      0.00564        -0.004605     -0.015742      0.015150
Li	      6.53853     10.06144     -4.03521        -0.001734     -0.017242      0.013848
Li	     14.89753      8.19944     -2.16227         0.040385     -0.046338      0.049176
Li	     15.32572     12.19820     -5.99117        -0.004784     -0.024803      0.024524
Ni	      0.11295      2.20644     -2.11080         0.087101     -0.178523      0.199095
Ni	     17.29624     14.16837     -6.30988         0.021227      0.000696      0.148307
Ni	      8.66550      8.05137     -0.00649        -0.001242     -0.044027      0.041495
Ni	      8.69976      8.05128     -8.07126         0.000747     -0.068851      0.081989
Ni	      0.05351      4.14580     -0.14942         0.108227     -0.217666      0.207041
Ni	     17.30766     12.27900     -8.15684         0.049343     -0.144100     -0.016212
Ni	      8.66443      6.04360     -2.02251        -0.019302     -0.044497      0.041302
Ni	      8.70031     10.06091     -6.05357        -0.029563     -0.082629      0.067634
Ni	      2.19522      4.07660     -2.04202        -0.036156     -0.037020      0.067400
Ni	      2.23016      8.08970     -6.12308        -0.047181      0.035112     -0.026146
Ni	     10.82543      6.05733     -4.04058        -0.044464     -0.006494      0.005111
Ni	     10.86915     10.06500     -8.08758        -0.070877     -0.012663      0.001894
Ni	      2.22306      6.08721     -0.01846        -0.040902     -0.026824      0.008170
Ni	      2.32359     10.08274     -4.07285        -0.070094     -0.017217      0.002234
Ni	     10.83059      8.05921     -2.02681        -0.042147     -0.004721      0.006869
Ni	     10.87743     12.07057     -6.07529        -0.075575     -0.003007      0.004862
Ni	      4.32838      4.05921     -4.04582         0.014710     -0.002232      0.006248
Ni	      4.38937      8.07715     -8.09929        -0.031950      0.012375     -0.009592
Ni	     12.91380      6.05250     -6.04579         0.070718     -0.001858      0.011810
Ni	     12.99163     14.05937     -6.07273         0.033393      0.014885     -0.015795
Ni	      4.33724      6.06640     -2.03427         0.010931      0.001829      0.006282
Ni	      4.39240     10.07859     -6.08806        -0.021519      0.007081      0.000055
Ni	     13.00086      8.03791     -4.00236         0.023818     -0.037690      0.044094
Ni	     13.00696     12.05390     -8.08376         0.019554      0.044298     -0.077590
Ni	      6.50066      6.07811     -4.06849         0.043695      0.087319     -0.068354
Ni	      6.53915     10.09570     -8.11544         0.035906      0.050789     -0.025441
Ni	     15.21469      7.94215     -6.04462         0.032552      0.151057      0.009153
Ni	     15.14347     11.99289     -9.97955        -0.030129      0.212982     -0.214856
Ni	      6.50018      8.08629     -2.05227         0.022353      0.081370     -0.076185
Ni	      6.54164     12.10898     -6.09264         0.017722      0.029364     -0.042042
Ni	     15.22554     10.06564     -3.86072         0.052420      0.012908     -0.151194
Ni	     15.07177     13.93059     -8.02148        -0.002552      0.181780     -0.201094
O	      4.34467      4.14698     -2.12505         0.081895     -0.118085      0.124442
O	      4.32312      8.09335     -6.19616         0.076253     -0.126293      0.116634
O	     12.99003      6.11361     -4.02124         0.097497     -0.139465      0.074080
O	     12.93473     10.16603     -8.09467         0.103065     -0.209389      0.105501
O	      4.32093      6.15027     -0.10818         0.111855     -0.117758      0.122033
O	      4.35388     10.18335     -4.09196         0.118301     -0.093965      0.109408
O	     13.00719      8.04397     -2.07660         0.092001     -0.064127      0.132396
O	     12.95233     12.05717     -6.20168         0.101322     -0.126678      0.208361
O	      6.53165      8.17880     -0.13727        -0.031919     -0.141704      0.139933
O	      6.56497     12.19507     -4.17153         0.010721     -0.113259      0.117716
O	     15.56275      5.86859     -5.83059        -0.212265     -0.093487      0.083009
O	     15.22967     14.10411     -6.10546        -0.072678     -0.171133      0.193250
O	      6.52092      6.17715     -2.15038        -0.011727     -0.128787      0.129921
O	      6.54594     10.19001     -6.19480         0.013399     -0.103360      0.116090
O	     15.44046      7.98675     -3.94227        -0.160866     -0.105493      0.096308
O	     15.27064     11.95049     -8.03198        -0.061280     -0.183690      0.175354
O	      4.42278      5.98259     -3.96100        -0.082321      0.132308     -0.121887
O	      4.46996      9.98333     -8.07654        -0.081329      0.103323     -0.116022
O	     13.20295      8.03195     -5.87699        -0.104589      0.104893     -0.172226
O	     13.18351     12.08260    -10.02996        -0.158562      0.064440     -0.111157
O	      4.37246      7.97961     -1.92634        -0.050809      0.135340     -0.151933
O	      4.45150     12.07112     -5.97564        -0.051031      0.114437     -0.100996
O	     13.21471      9.91341     -3.99365        -0.107226      0.181677     -0.105144
O	     13.13648     13.98930     -8.10240        -0.201751      0.114716     -0.081451
O	      6.56017      1.95046     -1.94316         0.015517      0.138836     -0.142687
O	      6.53822      5.96728     -5.97305        -0.008420      0.119931     -0.103474
O	     15.12538      8.04317     -8.02600        -0.009276      0.133709     -0.140162
O	      6.53472      3.95755      0.07634        -0.001345      0.136891     -0.128089
O	      6.52392      7.98455     -3.96152        -0.007819      0.119096     -0.109846
O	      8.64633      4.13863     -2.13494        -0.004966     -0.140612      0.133170
O	      8.68458      8.15724     -6.16275         0.004595     -0.116984      0.125048
O	      0.06698      8.09333     -2.10843        -0.036816     -0.138564      0.136221
O	      8.65536      6.14751     -0.11846        -0.007408     -0.131279      0.135046
O	      8.68226     10.16736     -4.14291         0.000357     -0.125255      0.125356
O	      2.01143      4.05251     -0.09422         0.137085     -0.133076      0.088812
O	      1.99981      8.11037     -4.24807         0.080649     -0.155975      0.172462
O	     10.75392      6.14234     -2.12496         0.099637     -0.146388      0.143272
O	     10.79107     10.17045     -6.13003         0.100521     -0.141400      0.148709
O	      2.04000      2.14609     -2.03111         0.176740     -0.108573      0.132040
O	      1.96268      6.21927     -6.13465         0.090434     -0.174077      0.170706
O	     10.78271      8.15561     -0.10649         0.075009     -0.140090      0.145280
O	     10.84551      8.16953     -8.17003         0.062116     -0.160015      0.164551
O	     17.23885      8.26524     -6.16440         0.013558      0.181881     -0.179366
O	     17.06737     12.23059    -10.25494         0.111855      0.119043     -0.094336
O	      8.68282      5.95411     -3.94196        -0.023430      0.112018     -0.124653
O	      8.71993      9.96282     -7.97414         0.011050      0.130612     -0.122668
O	     17.28233     10.12792     -4.06161        -0.004326      0.166709     -0.199277
O	     16.93617     14.35096     -8.37458         0.134992      0.096110     -0.084360
O	      8.68667      7.96248     -1.92619        -0.022689      0.123234     -0.119997
O	      8.71102     11.97375     -5.95321         0.021593      0.128138     -0.131763
O	      2.24161      4.06885     -3.92729        -0.070052      0.180802     -0.207797
O	      2.19056      8.08239     -8.04744        -0.047870      0.147789     -0.127875
O	     10.86989      5.96489     -5.96313        -0.054996      0.150344     -0.146710
O	     10.89323     13.97519     -6.00868        -0.067335      0.131891     -0.152526
O	      2.25841      5.96360     -2.02687        -0.074380      0.191054     -0.163720
O	      2.22822     10.01391     -6.09420        -0.077336      0.113235     -0.135445
O	     10.89337      7.96943     -3.94052        -0.043535      0.156203     -0.163220
O	     10.85896     11.96541     -8.02064        -0.049905      0.138684     -0.145465
