# total energy = -584.70167196 eV
 
CRYSTAL
PRIMVEC
-0.006028 4.035721 4.018049 
17.343718 4.066498 -4.072832 
0.031205 8.083785 -8.047343 
PRIMCOORD
122 1
Li	      8.61041      2.05143     -2.04732         0.007215      0.027631     -0.021118
Li	      8.61927      6.10671     -6.08914        -0.010342      0.007708     -0.004373
Li	      0.31242     12.00264     -3.91341         0.025135      0.039039     -0.023803
Li	     17.23230      8.21330     -8.01555         0.027988      0.003830     -0.009658
Li	      8.60853      4.06728     -0.04002         0.028079      0.028880     -0.024476
Li	      8.61243      8.12286     -4.08029        -0.003360      0.007201     -0.009919
Li	      0.33404      9.98751     -5.88109         0.014847      0.029514     -0.040904
Li	      0.33858      5.92336     -2.17186         0.009605      0.004121     -0.003473
Li	      2.49554      2.09851     -0.05651        -0.058643      0.011445     -0.012772
Li	      2.09811      6.05231     -4.10647         0.008427     -0.006786      0.008673
Li	     10.68588      4.02129     -1.99529         0.009744     -0.000917      0.013838
Li	     10.73163      8.09594     -6.06149        -0.001887     -0.028946      0.025906
Li	      2.49049      4.07912      1.93933        -0.044030      0.013486     -0.012652
Li	      2.43442      8.13299     -2.07682        -0.024727      0.000308     -0.019954
Li	     10.66330      6.03016      0.00864         0.012288     -0.003155      0.012825
Li	     10.74180     10.11764     -4.05716        -0.004952     -0.023441      0.032564
Li	      4.48649      6.07495      1.96977        -0.036239      0.006851     -0.021336
Li	      4.47534      6.10427     -6.08270        -0.011880      0.019370     -0.009747
Li	     12.71020      8.02967      0.01764         0.004639     -0.012452      0.016242
Li	     13.11595      8.12568     -8.01384        -0.021110      0.008936     -0.005951
Li	      4.52023      4.05763     -0.02845        -0.008812      0.025409     -0.025078
Li	      4.47461      8.12159     -4.06618         0.010250      0.001128     -0.003362
Li	     12.71403      6.03898     -1.99832        -0.018761     -0.020512      0.025498
Li	     12.77869     10.07328     -6.02563        -0.005412     -0.002103      0.020226
Li	      6.54905      4.02898     -2.01196        -0.009189     -0.009941      0.006799
Li	      6.53964      8.07585     -6.03008        -0.011103     -0.012725      0.002316
Li	     14.89888      6.19934     -4.18195         0.030917     -0.036209      0.025236
Li	     15.32746     10.02434     -8.17470         0.005861     -0.021590      0.004698
Li	      6.54713      6.04525     -0.00442        -0.014287     -0.009985      0.009230
Li	      6.54558     10.08625     -4.02643        -0.011185     -0.002577      0.011862
Li	     14.86350      8.21543     -2.20895         0.035592     -0.026344      0.037388
Li	     14.86393     12.28249     -5.92807         0.008666     -0.004605      0.010260
Ni	      0.11367      6.15559      1.80734         0.083440     -0.196435      0.176314
Ni	     17.31906     10.34462    -10.14559         0.027591     -0.139445     -0.008940
Ni	      8.66382      4.04539     -4.03334         0.008523     -0.061445      0.058057
Ni	      8.70568      8.08016     -8.05347        -0.020152     -0.048305      0.041137
Ni	      0.02985      4.19641     -0.13101         0.104666     -0.210928      0.209414
Ni	     17.31348     12.18843     -8.25196         0.029994      0.008913      0.133967
Ni	      8.65845      6.06241     -2.02450        -0.001418     -0.062235      0.061372
Ni	      8.70516     10.09811     -6.04656        -0.037001     -0.048309      0.052125
Ni	      2.21266      4.05664     -2.06158        -0.030747     -0.020537      0.025140
Ni	      2.31790      8.11376     -6.04801        -0.067118      0.006698     -0.010829
Ni	     10.82781      6.07072     -4.04639        -0.031075     -0.021892      0.008585
Ni	     10.88079     10.12102     -8.06470        -0.077144     -0.006154      0.003765
Ni	      2.18745      6.07873     -0.05322        -0.026013     -0.060998      0.050372
Ni	      2.22277     10.15048     -4.06830        -0.035620      0.052450     -0.053763
Ni	     10.82306      8.08486     -2.04447        -0.033816     -0.007112      0.021115
Ni	     10.87296     12.13503     -6.05680        -0.067007     -0.003664      0.014994
Ni	      4.32235      8.08221     -0.03057         0.027899      0.006553     -0.004345
Ni	      4.38251     12.13471     -4.05132        -0.023001      0.015992     -0.014026
Ni	     12.90810     10.09482     -2.04333         0.059820     -0.027089      0.017145
Ni	     13.00087     10.11151    -10.05020         0.013231      0.026722     -0.023142
Ni	      4.33001      6.06898     -2.03828         0.018575     -0.003211     -0.015858
Ni	      4.38757     10.12141     -6.05220        -0.010535      0.018617     -0.017972
Ni	     13.00263      8.04878     -4.02797         0.004182     -0.051011      0.057371
Ni	     13.01790     12.12456     -8.04273        -0.002234      0.086947     -0.058180
Ni	      6.49414      6.08973     -4.06296         0.028854      0.042522     -0.044095
Ni	      6.53664     10.13442     -8.08594         0.022156      0.036607     -0.052817
Ni	     15.23203      7.89718     -6.04799         0.052752      0.135520      0.003010
Ni	     15.08429     12.05052     -9.90809         0.006442      0.209147     -0.188585
Ni	      6.49612      8.10841     -2.05216         0.040649      0.036938     -0.049079
Ni	      6.53592     12.14818     -6.08219         0.026262      0.058276     -0.035351
Ni	     15.22078     10.08617     -3.92178         0.038924     -0.003482     -0.127184
Ni	     15.15917     14.01326     -7.96943        -0.030206      0.209669     -0.206955
O	      4.31417      4.13842     -2.12840         0.094904     -0.122112      0.115683
O	      4.34992      8.20990     -6.07728         0.098358     -0.084534      0.105663
O	     13.00450      6.12225     -4.03553         0.102326     -0.134557      0.070631
O	     12.95934     10.24118     -8.04917         0.107069     -0.189020      0.123488
O	      4.33459      6.15457     -0.12184         0.084161     -0.103615      0.129034
O	      4.31688     10.14492     -4.14636         0.080317     -0.098159      0.086104
O	     12.98890      8.06814     -2.10259         0.097526     -0.065522      0.137538
O	     12.94355     12.13670     -6.15504         0.113755     -0.099053      0.193021
O	      6.52135      4.17326     -4.15431        -0.011894     -0.104285      0.110244
O	      6.54510      8.21130     -8.18060         0.027767     -0.111408      0.114532
O	     15.58366      9.86865     -1.84542        -0.231458     -0.082117      0.079844
O	     15.24532     10.13504    -10.08186        -0.057564     -0.171777      0.153351
O	      6.51584      6.18367     -2.14809        -0.008672     -0.097195      0.095032
O	      6.56452     10.22905     -6.16873        -0.023769     -0.117672      0.117819
O	     15.43756      7.98366     -3.96915        -0.169960     -0.088323      0.097904
O	     15.28224     12.06173     -7.92403        -0.065480     -0.144471      0.144053
O	      4.36509      5.96779     -3.94996        -0.042308      0.114715     -0.142395
O	      4.44409     10.09592     -7.96392        -0.053110      0.103782     -0.098959
O	     13.21775      8.04010     -5.90394        -0.104664      0.078292     -0.170289
O	     13.14999     12.14379     -9.97994        -0.196956      0.077928     -0.115446
O	      4.41289      8.00036     -1.94859        -0.055134      0.122485     -0.130228
O	      4.46322     12.02705     -6.03864        -0.078331      0.104224     -0.126764
O	     13.20842      9.92508     -4.02228        -0.110428      0.153131     -0.083696
O	     13.19983     14.07234     -8.07363        -0.149818      0.112686     -0.058344
O	      6.52453      5.97327      2.07455         0.006448      0.112464     -0.109441
O	      6.52442      5.98455     -5.96615         0.000589      0.113991     -0.128665
O	     15.13108     12.06722     -4.01937        -0.005204      0.135270     -0.139034
O	      6.56814      3.95843      0.06004        -0.005170      0.120651     -0.123819
O	      6.53539      7.99296     -3.95105        -0.013156      0.118798     -0.132462
O	      0.06229      6.13830     -4.08265        -0.049777     -0.110030      0.130379
O	      8.65540      4.15404     -2.12955        -0.005067     -0.112366      0.116618
O	      8.68818      8.18648     -6.15250        -0.005972     -0.126773      0.124477
O	      8.64649      6.17416     -0.11674        -0.003039     -0.118370      0.113009
O	      8.69042     10.20823     -4.14166        -0.003872     -0.123255      0.120880
O	      1.98128      4.13679     -0.03054         0.129883     -0.107994      0.134475
O	      1.96868      8.27804     -4.07587         0.058979     -0.154996      0.124684
O	     10.75303      6.16999     -2.12750         0.103279     -0.163171      0.166643
O	     10.79504     10.18517     -6.15586         0.091055     -0.155432      0.140160
O	      2.04733      6.06559      1.88336         0.168476     -0.140240      0.109485
O	      1.98663     10.17212     -2.19150         0.074263     -0.134935      0.150238
O	     10.78272      4.14833     -4.14151         0.076283     -0.157154      0.151330
O	     10.85024     12.22576     -4.15544         0.059691     -0.161550      0.152614
O	     17.29328      8.10113     -6.10839        -0.022865      0.172769     -0.161553
O	     16.94830     12.40662    -10.33027         0.143809      0.077083     -0.074727
O	      8.67954      5.96510     -3.94357        -0.014601      0.116531     -0.118817
O	      8.71067      9.99439     -7.96468         0.003124      0.109235     -0.106528
O	     17.24394     10.21192     -4.24804         0.021120      0.155114     -0.146547
O	     17.08538     14.29240     -8.20144         0.103693      0.079869     -0.100365
O	      8.67415      7.98374     -1.93315        -0.005092      0.112308     -0.117151
O	      8.71731     12.02324     -5.94690        -0.002606      0.101075     -0.108975
O	      2.23582      7.96501     -0.04193        -0.064509      0.189638     -0.174907
O	      2.20534     12.07692     -4.05231        -0.068405      0.105625     -0.129981
O	     10.86289     10.00708     -1.95288        -0.030733      0.158120     -0.158393
O	     10.89680     10.04699     -9.97781        -0.040173      0.146290     -0.111645
O	      2.25035      6.06452     -1.94113        -0.081027      0.154860     -0.180607
O	      2.20161     10.13221     -5.99415        -0.049705      0.129182     -0.117395
O	     10.88661      7.98630     -3.95913        -0.021139      0.165778     -0.150640
O	     10.86271     12.05839     -7.96309        -0.039424      0.146310     -0.128909
