# total energy = -538.14014623 eV
 
CRYSTAL
PRIMVEC
0.000827 3.820870 3.814359 
16.134860 3.877887 -3.867929 
-0.001928 7.744195 -7.730636 
PRIMCOORD
123 1
Li	      7.63792      1.85690     -1.85009        -0.271879     -0.836425      0.183006
Li	      7.63185      9.16630     -1.90511         0.165621      0.522866      0.245290
Li	      0.17957      7.38015     -7.33270        -1.943792      0.146841     -0.583272
Li	      0.13759      3.81810     -3.61411        -1.292818     -1.424349     -0.024167
Li	      7.63727      3.67087     -0.04116        -0.294807     -0.495180      0.848064
Li	      7.63158      7.35296     -3.71572         0.198088      0.030214     -0.271346
Li	      0.17782      9.19110     -5.58161        -2.445472      0.739399     -0.219573
Li	      0.12765      5.46615     -1.96360        -1.791292     -0.020882      1.150869
Li	      1.85270      1.80667     -0.01078         0.356658     -0.122760     -0.260390
Li	      1.86751      5.53367     -3.69477         0.321830     -0.287383     -0.160408
Li	      9.55285      3.62698     -1.80459         0.839326     -0.900965      0.509232
Li	      9.53862      7.30426     -5.48639         0.327354     -0.362018     -0.472085
Li	      1.86246      3.64274      1.78133         0.003067     -0.233258      0.726515
Li	      2.11601      7.35521     -1.88870        -0.504540      0.231830      0.226802
Li	      9.54729      5.44211      0.00819         0.565804     -0.374877      0.870111
Li	      9.57223      9.12262     -3.67334         0.081453      0.241301      0.114508
Li	      3.81986      5.45817      1.79275         0.490580     -0.154455      0.584983
Li	      3.86094      5.54912     -5.52042        -0.135154     -0.351323     -0.348277
Li	     11.34888      7.27764     -0.01691         0.913992     -0.165655      1.026959
Li	     11.31375     10.92209     -3.67001         0.725298      0.631283      0.369895
Li	      3.89548      3.64978     -0.02296         0.223161     -0.604953      0.458769
Li	      3.84971      7.35070     -3.72234        -0.068998      0.030896      0.160224
Li	     11.34730      5.43947     -1.79510         1.361677     -0.890632      0.446965
Li	     11.31148      9.13640     -5.50708         0.866301     -0.570461      0.350890
Li	      5.76920      3.63993     -1.82363        -0.211815     -1.077580      0.526208
Li	      5.75213      7.32429     -5.49969         0.096336     -0.196519     -0.449084
Li	     13.44843      5.64375     -3.85585        -0.273602     -1.417639      0.384608
Li	     13.52476      9.28610     -7.43425         0.779049     -1.265756      1.043458
Li	      5.77318      5.45587     -0.00398        -0.044130     -0.345787      0.821872
Li	      5.75277      9.13730     -3.68487         0.017891      0.212002      0.388623
Li	     13.43212      7.49256     -2.04455         0.338753     -1.286520      1.611815
Li	     13.29975     11.03615     -5.56414         0.644736      0.754501      0.473696
Ni	     15.31379      5.46061     -5.42476         2.281068     -2.063142     -3.868235
Ni	      0.00052      5.59479     -5.48298        -2.810405     -1.607815     -2.877207
Ni	      7.69009      3.65935     -3.64879        -0.607265     -4.419725     -3.580588
Ni	      7.67477     10.96439     -3.70165        -0.646843      3.893770      4.073638
Ni	     15.27239      7.23844     -3.68223         3.417241      2.224971      0.294850
Ni	      0.01485      7.32641     -3.75836        -3.446079      2.021697      1.266473
Ni	      7.68966      5.47364     -1.83772        -0.442576      0.353387      1.444561
Ni	      7.67443      9.14951     -5.51372        -0.729793     -1.020649     -0.828512
Ni	      1.87665      3.69032     -1.85980        -1.498177     -4.053332     -1.696751
Ni	      1.91456      7.35310     -5.52652        -0.308806     -3.541316     -2.852156
Ni	      9.64016      5.48021     -3.66702         0.594723     -1.044074     -4.191075
Ni	      9.61911      9.17374     -7.33519        -0.991934     -3.285997     -1.838361
Ni	      1.95842      5.49685     -0.04006        -2.012148     -0.602848      2.149122
Ni	      1.90356      9.17028     -3.71594        -0.632361      0.616005      1.232122
Ni	      9.64290      7.30139     -1.85141        -0.600488      1.393504      3.480466
Ni	      9.61663     10.98276     -5.52937        -0.488470      4.439657      0.530804
Ni	      3.80661      3.68612     -3.66649         0.129141     -4.346217     -3.818376
Ni	      3.80003     10.99315     -3.73521         0.738235      4.528842      3.256527
Ni	     11.57500      9.11081     -1.86285        -0.079705      3.937249      3.281569
Ni	     11.54170      9.15556     -9.12581         0.153818     -1.991847     -3.209569
Ni	      3.80761      5.50323     -1.85886         0.350001      0.780526      1.181802
Ni	      3.80190      9.18016     -5.53969         0.735685     -0.373871     -1.625166
Ni	     11.54971      7.29668     -3.66942         0.274901     -0.261612     -0.919576
Ni	     11.55766     10.97345     -7.32000        -0.257444      1.698897     -0.751911
Ni	      5.73111      5.52420     -3.69685         0.314331     -0.414856     -1.698956
Ni	      5.73087      9.20155     -7.37988         0.147991      1.513900     -6.805359
Ni	     13.42935      7.28488     -5.49051         0.415995      0.855733     -4.784011
Ni	     13.41713     10.92206     -9.06790         1.805225      2.517957     -3.759557
Ni	      5.74173      7.33889     -1.88431         0.375631      4.351785      3.589574
Ni	      5.73192     11.01684     -5.56675         0.562733      6.487363     -5.356654
Ni	     13.39389      9.21905     -3.76541         0.466374      1.628488     -1.562978
Ni	     13.44126     12.72233     -7.25954         1.718717      4.037204      0.322847
O	      3.78164      3.77579     -1.93974         0.814040     -3.386402      2.013232
O	      3.81677      7.44651     -5.61790         0.804140     -3.393796     -0.046146
O	     11.61720      5.47193     -3.74726         0.709474     -3.291110      0.313899
O	     11.55083      9.24014     -7.30321         0.948946     -3.203609      1.501086
O	      3.81497      5.57276     -0.11874         1.597996     -0.145301      3.003011
O	      3.83396      9.26726     -3.80305         0.857622     -2.373330      3.107092
O	     11.60211      7.36584     -1.83876         0.803144     -3.390610      2.729962
O	     11.51056     10.95751     -5.58178         0.544696      0.478905      3.157349
O	      5.74874      3.79478     -3.77194         0.023117     -3.636610     -0.142975
O	      5.74436     11.10293     -3.83663        -0.076395     -0.418738      3.382809
O	     13.48179      9.18561     -1.98151        -0.073582      1.225311      3.374583
O	     13.46321      9.15466     -9.13545         0.454645     -3.414303     -1.006574
O	      5.75076      5.60372     -1.96841         0.073804     -2.440295      3.021150
O	      5.74692      9.28461     -5.65194         0.023084     -3.048986      4.159276
O	     13.49738      7.41379     -3.74290        -1.169076     -1.788790      2.150642
O	     13.47828     10.98051     -7.30163         0.989989     -2.305856      2.619813
O	      3.81423      5.41618     -3.59185        -1.709048      2.765605     -3.081292
O	      3.80947      9.09494     -7.27673        -1.476861      0.333741     -3.875156
O	     11.64939      7.25546     -5.52192        -2.698181     -0.494914     -2.550608
O	     11.65492     11.01350     -9.08744        -3.270575      2.493944     -3.127942
O	      3.87388      7.23225     -1.76862        -0.753361      3.649799      0.265121
O	      3.84860     10.90423     -5.47133        -1.683519      3.549072     -3.130668
O	     11.57856      9.12348     -3.60500        -2.215015      1.697938     -1.875345
O	     11.66489     12.74398     -7.35790        -3.159493      3.690936     -0.782358
O	      5.74290      5.38098      1.87179        -0.037139     -0.930445      2.020846
O	      5.74820      5.42827     -5.41364         0.053583     -0.336512     -4.061568
O	      5.75026      3.56551      0.05572         0.083148     -1.443128      1.354009
O	      5.74569      7.24131     -3.60401         0.026931      3.297000     -2.467700
O	     15.22221      5.46679     -3.67047         1.980956     -3.141020      3.354525
O	      0.00562      5.52255     -3.68712        -0.296045     -1.998512      1.849870
O	      7.68147      3.75188     -1.92748         0.356835     -3.558609      2.949362
O	      7.66820      7.42433     -5.60338         0.080657     -3.699325     -0.238318
O	     15.22345      7.31771     -1.99722         2.020886     -0.053370      3.891583
O	      7.68020      5.56708     -0.11568         0.590644      0.072454      4.002862
O	      7.67183      9.24113     -3.78980        -0.033047     -2.739416      3.143910
O	      1.69911      3.79415     -0.05902        -0.914511     -4.100780      2.122501
O	      1.83633      7.45580     -3.71575         1.041728     -2.804869      1.996367
O	      9.59388      5.57600     -1.94028         1.346995     -2.814239      3.998396
O	      9.54611      9.23825     -5.61219         0.682868     -3.448850      2.561628
O	      1.79886      5.51845      1.65054        -0.636994     -0.067048      4.973202
O	      1.81936      9.17732     -1.99910         0.386385      0.145434      3.144807
O	      9.58029      3.75084     -3.74181         1.346337     -3.641829      0.724051
O	      9.56289     11.06942     -3.80601         0.851095     -0.199828      3.326975
O	     15.22786      7.36289     -5.43821         3.490921      1.328909     -3.097941
O	     15.15894     11.08214     -9.23349         3.462061      1.759829     -2.468026
O	      7.69600      5.39325     -3.57028         0.329488      2.421709     -3.102712
O	      7.67473      9.06954     -7.24986         0.065278      0.288181     -3.651031
O	     14.42205     10.14975     -4.63672         4.412881      2.114466     -1.833379
O	     15.19911     12.83881     -7.34941         4.381533      1.875124      0.065112
O	      7.69455      7.20797     -1.75984         0.240488      3.563808      0.088865
O	      7.67769     10.88690     -5.43423         0.191153      3.066786     -2.660333
O	      1.90211      7.19594     -0.04413        -1.678869      4.281341      0.406182
O	      1.94288     10.88300     -3.69325        -2.689218      4.000809     -0.415682
O	      9.65873      9.02804     -1.76708        -1.333161      3.132390     -0.174410
O	      9.64788      9.09654     -9.06101        -1.423803      1.035226     -3.610097
O	      1.90019      5.50273     -1.73282        -1.933814      1.858699     -3.953452
O	      1.95000      9.13404     -5.42671        -2.649167      3.142158     -3.929267
O	      9.66952      7.20620     -3.58645        -1.548460      2.232143     -3.212553
O	      9.63264     10.90980     -7.25281        -1.576206      3.799324     -3.092657
