# total energy = -565.64405515 eV
 
CRYSTAL
PRIMVEC
0.000840 3.881200 3.874585 
16.389621 3.939117 -3.929001 
-0.001958 7.866471 -7.852698 
PRIMCOORD
123 1
Li	      7.88103      1.91600     -1.90897        -0.196263     -0.536730      0.146275
Li	      7.87476      9.45805     -1.96575         0.105923      0.369773      0.099523
Li	      0.18528      7.61504     -7.56609        -1.470709      0.091319     -0.375095
Li	      0.14196      3.93963     -3.72914        -1.074494     -0.923126     -0.033144
Li	      7.88035      3.78771     -0.04247        -0.232432     -0.317064      0.536012
Li	      7.87449      7.58699     -3.83398         0.121232      0.049487     -0.218121
Li	      0.18347      9.48363     -5.75927        -1.762102      0.490103     -0.170112
Li	      0.13171      5.64013     -2.02610        -1.352084     -0.048636      0.731120
Li	      1.91167      1.86418     -0.01113         0.303381     -0.065135     -0.130656
Li	      1.92695      5.70979     -3.81237         0.182357     -0.153569     -0.102864
Li	      9.85691      3.74242     -1.86203         0.531938     -0.618410      0.340127
Li	      9.84221      7.53673     -5.66101         0.167941     -0.172966     -0.294521
Li	      1.92174      3.75869      1.83802         0.022524     -0.175955      0.481100
Li	      2.18336      7.58931     -1.94881        -0.299953      0.175582      0.115275
Li	      9.85117      5.61532      0.00845         0.368013     -0.289015      0.592017
Li	      9.87689      9.41297     -3.79025         0.028179      0.179380      0.051857
Li	      3.94144      5.63190      1.84981         0.364427     -0.141666      0.421142
Li	      3.98382      5.72574     -5.69612        -0.069475     -0.196875     -0.229294
Li	     11.71009      7.50927     -0.01745         0.592883     -0.138604      0.677289
Li	     11.67384     11.26972     -3.78683         0.417090      0.386088      0.201385
Li	      4.01947      3.76595     -0.02369         0.182345     -0.408094      0.296871
Li	      3.97224      7.58466     -3.84082        -0.023760      0.054417      0.085528
Li	     11.70848      5.61260     -1.85224         0.850839     -0.589291      0.297640
Li	     11.67150      9.42720     -5.68236         0.509696     -0.366927      0.215560
Li	      5.95283      3.75578     -1.88167        -0.123564     -0.737113      0.400973
Li	      5.93521      7.55740     -5.67473         0.082164     -0.120960     -0.259454
Li	     13.87647      5.82338     -3.97858        -0.180384     -0.900856      0.297995
Li	     13.95524      9.58166     -7.67086         0.576427     -0.738095      0.579396
Li	      5.95694      5.62953     -0.00412        -0.010034     -0.281976      0.553116
Li	      5.93588      9.42813     -3.80216         0.023611      0.166918      0.198742
Li	     13.85964      7.73104     -2.10963         0.234340     -0.819779      1.027291
Li	     13.72306     11.38742     -5.74123         0.478875      0.496187      0.266953
Ni	     15.80119      5.63440     -5.59742         1.789667     -1.347448     -2.601577
Ni	      0.00054      5.77286     -5.65750        -2.024379     -1.618401     -1.668247
Ni	      7.93485      3.77581     -3.76492        -0.373433     -2.730072     -2.138237
Ni	      7.91904     11.31337     -3.81946        -0.425599      2.350853      2.518956
Ni	     15.75847      7.46883     -3.79943         2.342672      1.341275      0.112737
Ni	      0.01531      7.55959     -3.87799        -2.235106      0.672889      1.336574
Ni	      7.93440      5.64785     -1.89621        -0.279279      0.208551      0.921695
Ni	      7.91870      9.44073     -5.68922        -0.475114     -0.651937     -0.460091
Ni	      1.93638      3.80778     -1.91900        -0.979317     -2.538869     -0.867603
Ni	      1.97550      7.58713     -5.70242         0.079951     -2.155413     -1.691107
Ni	      9.94701      5.65464     -3.78374         0.358531     -0.694835     -2.498594
Ni	      9.92526      9.46573     -7.56865        -0.677687     -1.939524     -1.198011
Ni	      2.02076      5.67181     -0.04134        -1.360133     -0.533400      1.400295
Ni	      1.96414      9.46215     -3.83421        -0.120191      0.406613      0.787078
Ni	      9.94981      7.53379     -1.91034        -0.380566      0.935419      2.015747
Ni	      9.92272     11.33232     -5.70537        -0.403264      2.662036      0.388532
Ni	      3.92777      3.80344     -3.78320         0.191840     -2.647985     -2.377489
Ni	      3.92098     11.34304     -3.85410         0.541638      2.836746      1.937422
Ni	     11.94341      9.40079     -1.92214        -0.118050      2.472005      2.097642
Ni	     11.90905      9.44696     -9.41627         0.168990     -1.121268     -1.976276
Ni	      3.92881      5.67839     -1.91802         0.265341      0.489617      0.736611
Ni	      3.92292      9.47235     -5.71601         0.532058     -0.229920     -1.037294
Ni	     11.91732      7.52893     -3.78622         0.197582     -0.194190     -0.642231
Ni	     11.92553     11.32272     -7.55299        -0.059232      1.094269     -0.490188
Ni	      5.91352      5.70002     -3.81451         0.240950     -0.241598     -1.093955
Ni	      5.91327      9.49442     -7.61476         0.098466      1.402752     -4.718133
Ni	     13.85678      7.51674     -5.66526         0.275897      0.677581     -3.049099
Ni	     13.84417     11.26969     -9.35651         1.112583      1.545872     -2.309640
Ni	      5.92448      7.57247     -1.94428         0.246024      2.683916      2.154984
Ni	      5.91437     11.36749     -5.74393         0.407768      4.359222     -3.586427
Ni	     13.82018      9.51248     -3.88526         0.320844      1.005791     -0.934103
Ni	     13.86908     13.12726     -7.49061         1.101086      2.545919      0.189664
O	      3.90201      3.89597     -2.00148         0.449221     -2.000737      1.283992
O	      3.93827      7.68352     -5.79671         0.454318     -2.122506      0.019062
O	     11.98694      5.64609     -3.86653         0.438626     -2.139306      0.257001
O	     11.91848      9.53424     -7.53565         0.586022     -1.901796      0.906023
O	      3.93639      5.75013     -0.12252         0.967302     -0.093016      1.838258
O	      3.95598      9.56222     -3.92409         0.427359     -1.510668      1.901062
O	     11.97139      7.60029     -1.89728         0.451418     -2.115163      1.766435
O	     11.87691     11.30626     -5.75943         0.337652      0.267838      1.881956
O	      5.93171      3.91555     -3.89199         0.001932     -2.219045     -0.032904
O	      5.92721     11.45632     -3.95875        -0.070567     -0.804163      1.724652
O	     13.91089      9.47798     -2.04457        -0.155994      0.765695      2.102768
O	     13.89172      9.44604     -9.42622         0.337835     -2.137988     -0.534545
O	      5.93380      5.78207     -2.03107         0.009125     -1.488091      1.828977
O	      5.92983      9.58012     -5.83184        -0.066906     -1.545549      2.840122
O	     13.92697      7.64976     -3.86203        -0.811153     -1.151274      1.360019
O	     13.90727     11.33000     -7.53402         0.617728     -1.536770      1.656397
O	      3.93563      5.58857     -3.70617        -1.071929      1.630234     -1.823637
O	      3.93071      9.38441     -7.50833        -0.945228      0.255633     -2.434987
O	     12.02017      7.48639     -5.69768        -1.684774     -0.273413     -1.665622
O	     12.02587     11.36404     -9.37667        -2.147112      1.591514     -1.911543
O	      3.99717      7.46244     -1.82492        -0.490067      2.157704      0.108546
O	      3.97109     11.25129     -5.64547        -1.036331      2.228489     -1.898897
O	     11.94709      9.41386     -3.71974        -1.426222      1.090025     -1.060510
O	     12.03616     13.14960     -7.59210        -2.055144      2.287992     -0.601552
O	      5.92569      5.55225      1.93136        -0.058922     -1.092509      1.502297
O	      5.93115      5.60104     -5.58594         0.011809     -0.194517     -2.453003
O	      5.93329      3.67899      0.05749         0.027047     -0.870136      1.342414
O	      5.92856      7.47179     -3.71872         0.006108      1.968931     -1.496090
O	     15.70670      5.64079     -3.78729         1.442572     -2.022199      2.276736
O	      0.00579      5.69832     -3.80447        -0.134423     -1.172856      1.161556
O	      7.92597      3.87131     -1.98883         0.245904     -2.158849      1.792290
O	      7.91227      7.66063     -5.78172         0.056667     -2.313184     -0.070827
O	     15.70798      7.55062     -2.06078         1.407788     -0.162756      2.341837
O	      7.92465      5.74426     -0.11936         0.388387     -0.006707      2.432809
O	      7.91600      9.53525     -3.91042         0.009147     -1.663915      1.979911
O	      1.75319      3.91491     -0.06091        -0.671172     -2.494562      1.298866
O	      1.89477      7.69310     -3.83400         0.571568     -1.616847      1.223569
O	      9.89923      5.75347     -2.00203         0.855881     -1.666028      2.439452
O	      9.84995      9.53229     -5.79082         0.631126     -2.101578      1.492008
O	      1.85611      5.69409      1.70308        -0.594412     -0.085898      3.164082
O	      1.87727      9.46942     -2.06273         0.334575      0.041537      1.866401
O	      9.88521      3.87022     -3.86091         0.814394     -2.226972      0.526853
O	      9.86725     11.42174     -3.92714         0.570570     -0.211604      1.961217
O	     15.71253      7.59724     -5.61129         2.357862      1.025610     -1.972441
O	     15.64142     11.43486     -9.52737         2.225303      1.800273     -2.203829
O	      7.94094      5.56490     -3.68392         0.179385      1.472315     -1.836740
O	      7.91901      9.35821     -7.48062         0.068018      0.192338     -2.324894
O	     14.88109     10.47280     -4.78430         3.101913      1.409961     -1.177090
O	     15.68286     13.24744     -7.58332         2.940319      1.625991     -0.139289
O	      7.93946      7.43739     -1.81586         0.136442      2.185830      0.021543
O	      7.92205     11.23341     -5.60719         0.069278      1.877155     -1.670898
O	      1.96264      7.42497     -0.04553        -1.133486      2.649297      0.283183
O	      2.00471     11.22939     -3.81080        -1.880091      2.477281     -0.357877
O	      9.96615      9.31539     -1.82332        -0.742774      1.851068     -0.150437
O	      9.95496      9.38607     -9.34940        -0.913903      0.737483     -2.233570
O	      1.96068      5.67787     -1.78797        -1.261975      1.063004     -2.417965
O	      2.01206      9.42475     -5.59943        -1.988602      1.999167     -2.396822
O	      9.97727      7.43556     -3.70060        -0.940999      1.291679     -1.919110
O	      9.93923     11.25704     -7.48365        -0.957882      2.391682     -1.856777
