# total energy = -91.82117958 eV
 
CRYSTAL
PRIMVEC
-0.000005 2.047474 2.047611 
4.115293 -4.292931 4.293278 
4.115370 4.292939 -4.293291 
PRIMCOORD
16 1
Li	      2.05797      2.20480     -0.15825         0.001235      0.019094     -0.018645
Li	      3.97346      4.19417     -0.09970        -0.003278     -0.000016     -0.000269
Li	      4.25812     -2.14432      2.14668         0.005230     -0.001208     -0.000012
Li	      6.17368     -0.15613      2.20396         0.000155     -0.018738      0.017463
Mn	      0.00075      2.04754      2.04648         0.000299     -0.003668      0.003432
Mn	      4.11605      2.04780      2.04626         0.000236      0.002037     -0.002519
Ni	      2.05842     -0.09747      2.14434        -0.001320     -0.050951      0.050657
Ni	      6.17398      2.14542     -0.09897        -0.001195      0.051765     -0.050124
O	      2.05879     -0.09867      4.19312         0.000129      0.000693     -0.000994
O	      6.17403      2.13904      1.95491        -0.000445     -0.085362      0.085713
O	      4.12034     -2.34094      4.38764         0.096208     -0.017628      0.018676
O	      6.17356     -0.09842      4.19322        -0.002011      0.000735     -0.001079
O	      4.11183      4.38822     -2.34202        -0.095934      0.021240     -0.021824
O	      2.05809      1.95626      2.13793         0.000317      0.084955     -0.084696
O	      4.11193      1.95258      0.09384        -0.095880     -0.020399      0.022281
O	      4.12024      0.09580      1.95075         0.096253      0.017452     -0.018063
