# total energy = -584.55116894 eV
 
CRYSTAL
PRIMVEC
0.000888 4.102408 4.095417 
17.323744 4.163626 -4.152934 
-0.002070 8.314820 -8.300261 
PRIMCOORD
123 1
Li	      8.80498      2.14063     -2.13278         0.066044      0.337032     -0.137122
Li	      8.79709      6.46448     -6.29163        -0.022202     -0.117861     -0.033269
Li	      0.20907      0.19299     -0.15286         0.877312      0.111593      0.101337
Li	      0.15861      4.40150     -4.16633         1.201114      0.978793      0.580186
Li	      8.80423      4.23178     -0.04746         0.062319      0.175976     -0.241102
Li	      8.79767      8.47647     -4.28346        -0.021295      0.001795      0.072273
Li	      0.20705      2.28065      1.86579         0.887725     -0.140004      0.071279
Li	      0.14715      6.30137     -2.26363         0.834597      0.003291     -0.468618
Li	      2.13578      2.08272     -0.01243         0.277983      0.159859     -0.002974
Li	      2.15286      6.37919     -4.25932         0.018211      0.004084      0.027652
Li	     11.01252      4.18118     -2.08033        -0.270647      0.296596     -0.185094
Li	     10.99609      8.42033     -6.32470        -0.126419      0.047560      0.078421
Li	      2.14704      4.19935      2.05351         0.387443      0.065088     -0.170642
Li	      2.43932      8.47906     -2.17728         0.113154     -0.075371     -0.008653
Li	     11.00609      6.27365      0.00944        -0.245816      0.216209     -0.422173
Li	     11.03485     10.51653     -4.23460        -0.082097     -0.067034     -0.028023
Li	      4.40264      2.18976     -2.02873        -0.000595      0.116279     -0.388807
Li	      4.45088      6.39701     -6.36393         0.064911      0.070738      0.076246
Li	     13.08207      4.28724     -4.11491        -0.297974      0.055232     -0.347860
Li	     13.04157      8.48855     -8.32621        -0.225488     -0.027129     -0.105213
Li	      4.49070      4.20746     -0.02647         0.073457      0.278947     -0.226998
Li	      4.43796      8.47388     -4.29111         0.061960     -0.099720      0.022713
Li	     13.08115      6.27061     -2.06938        -0.417123      0.338961     -0.239468
Li	     13.03985     10.53243     -6.34855        -0.276166      0.079146     -0.047341
Li	      6.65074      4.19611     -2.10228         0.061755      0.226955     -0.111835
Li	      6.63104      8.44342     -6.34003         0.018578      0.027702      0.059754
Li	     15.50332      6.50610     -4.44501        -0.061015      0.386126     -0.122184
Li	     15.59133     10.70500     -8.57019        -1.356953      0.145420     -0.065107
Li	      6.65531      6.28952     -0.00459         0.010662      0.103280     -0.226109
Li	      6.63179     10.53347     -4.24791         0.039781     -0.043183     -0.038687
Li	     15.48453      8.63741     -2.35696        -0.192637      0.292374     -0.439454
Li	     15.33192     12.72246     -6.41432        -0.412507     -0.289166      0.011737
Ni	      0.32996      2.13135     -2.10073        -3.765778      0.109664      1.168356
Ni	      0.00059      6.44966     -6.32077         4.017066      0.679755      0.371583
Ni	      8.86511      4.21848     -4.20631         0.092179      0.869074      0.790611
Ni	      8.84658      8.53732     -8.36267         0.048823     -0.896742     -0.733292
Ni	      0.28224      4.18083     -0.09193        -4.563834     -0.876558      0.269044
Ni	      0.01711      8.44586     -4.33263         3.889941     -0.076591     -0.586296
Ni	      8.86461      6.31000     -2.11852         0.068514     -0.120022     -0.222346
Ni	      8.84706     10.54753     -6.35620         0.121223      0.076394      0.272238
Ni	      2.16340      4.25420     -2.14398         1.922574      1.115130     -0.112433
Ni	      2.20710      8.47663     -6.37096         0.237938      0.486459      0.586203
Ni	     11.11316      6.31757     -4.22733        -0.293693      0.289825      0.795500
Ni	     11.08889     10.57547     -8.45599         0.068459      0.516163      0.478535
Ni	      2.25767      6.33676     -0.04619         0.745811      0.473699     -0.804157
Ni	      2.19442     10.57148     -4.28372         0.652694     -0.189291     -0.113613
Ni	     11.11631      8.41703     -2.13430        -0.070888     -0.358363     -0.624430
Ni	     11.08603     12.66090     -6.37425        -0.000192     -0.891805     -0.105659
Ni	      4.38825      4.24935     -4.22672         0.010743      0.853726      0.857040
Ni	      4.37977      8.57046     -8.40136         0.068025     -1.028650     -0.595559
Ni	     13.34273      6.40051     -6.24290        -0.256470     -0.740472     -0.788648
Ni	     13.30523     10.55450    -10.52021        -0.334890      0.307750      0.659987
Ni	      4.38941      6.34412     -2.14289         0.053947     -0.144350     -0.205959
Ni	      4.38283     10.58287     -6.38615        -0.001692      0.058138      0.422967
Ni	     13.31448      8.41161     -4.23010        -0.218843      0.148446      0.200013
Ni	     13.32365     12.65017     -8.43849        -0.342229     -0.326625      0.106306
Ni	      6.60680      6.36828     -4.26172        -0.005594      0.097257      0.305774
Ni	      6.60652     10.60753     -8.50749         0.099845     -1.316764      4.005414
Ni	     15.48134      8.39800     -6.32945        -0.311640      0.114934      0.858675
Ni	     15.46724     12.59093    -10.45345        -0.608510     -0.116281      0.390674
Ni	      6.61907      8.46026     -2.17223         0.019720     -0.902436     -0.753976
Ni	      6.60775     12.70019     -6.41734        -0.042873     -2.439720      1.934170
Ni	     15.44043     10.62770     -4.34075        -0.487410     -0.489600      0.278735
Ni	     15.49505     14.66627     -8.36878        -0.693308     -0.463431     -0.482071
O	      4.35947      4.35273     -2.23613        -0.179931      0.221985     -0.253425
O	      4.39997      8.58432     -6.47630        -0.082074      0.137578      0.251722
O	     13.39228      6.30803     -4.31984         0.174894      0.751825      0.187847
O	     13.31577     10.65202     -8.41912         0.070346     -0.121125     -0.378922
O	      4.39788      6.42426     -0.13688        -0.288842     -0.150590     -0.306039
O	      4.41978     10.68327     -4.38415        -0.107954      0.183275     -0.030740
O	     13.37489      8.49133     -2.11972         0.148319      0.347268     -0.627995
O	     13.26934     12.63180     -6.43466         0.186110      0.062072      0.026365
O	      6.62713      4.37461     -4.34828        -0.031140      0.423431      0.192090
O	      6.62121      8.69703     -8.51827        -0.063039     -0.341374     -0.359084
O	     15.54088      6.48675     -6.37970         0.382577     -0.650035     -0.560880
O	     15.52036     10.55348    -10.53133        -2.474375      0.348412      0.228430
O	      6.62947      6.45996     -2.26919        -0.030471      0.314440     -0.301506
O	      6.62504     10.70328     -6.51554        -0.331399      0.195647     -0.151696
O	     15.55975      8.54660     -4.31481         0.318863      0.256473     -0.288742
O	     15.53773     12.65831     -8.41729        -2.402861      0.437033     -0.222468
O	      4.39704      6.24377     -4.14068         0.209437     -0.299051      0.225156
O	      4.39361      2.16981     -0.08834         0.026031      0.093995      0.534188
O	     13.42938      8.36409     -6.36566         0.561613      0.439660      0.570907
O	     13.43784      4.38151     -2.17571         0.910504     -0.696357      0.225455
O	      4.46579      8.33733     -2.03887        -0.046746     -0.317909     -0.290436
O	      4.43873      4.25556      1.99292         0.081986     -0.192843      0.419512
O	     13.34774     10.51753     -4.15584         0.518449     -0.406889     -0.018496
O	     13.44932      6.37641     -0.18191         0.866769     -0.237315      0.454372
O	      6.61952      2.10078     -1.93763         0.056317      1.537891     -3.329860
O	      6.62651      6.25769     -6.24082         0.017660      0.318992      0.472749
O	      6.62889      4.11031      0.06424        -0.022531      1.856350     -1.774188
O	      6.62361      8.34777     -4.15470        -0.019527     -0.289490      0.272620
O	      0.22439      2.13848     -0.07838        -1.198375      0.833782     -0.680756
O	      0.00648      6.36638     -4.25051         0.728208      0.104166      0.019101
O	      8.85518      4.32516     -2.22199        -0.097013      0.439326     -0.436203
O	      8.83988      8.55875     -6.45956        -0.030285      0.326248      0.227695
O	      0.22581      4.27221      1.85055        -0.960979      0.193510     -0.482983
O	      8.85371      6.41771     -0.13335        -0.186735     -0.140590     -0.542341
O	      8.84406     10.65315     -4.36888         0.020410      0.355132     -0.233314
O	      1.95872      4.37389     -0.06804         3.709482      0.597339     -0.335585
O	      2.11692      8.59503     -4.28350        -0.135713      0.103524     -0.162588
O	     11.05981      6.42800     -2.23675        -0.106141      0.258947     -0.518523
O	     11.00473     10.64983     -6.46972        -0.033264      0.353802     -0.081364
O	      2.07283      2.25925     -2.19267         2.836709      0.085164     -0.673604
O	      2.09647      6.47719     -6.39998        -0.130249     -0.287888     -0.230979
O	     11.04413      4.32395     -4.31355        -0.071335      0.526485      0.144481
O	     11.02318      8.65839     -8.48297        -0.019432     -0.256631     -0.216810
O	      0.23090      4.32430     -2.11621        -1.969525     -0.319658      0.531039
O	      0.15145      8.61184     -6.49141        -1.902339     -0.803479      1.122871
O	      8.87191      6.21731     -4.11581        -0.060714     -0.261563      0.241508
O	      8.84741     10.45534     -8.35763         0.129469      0.084630      0.446011
O	     16.62571     11.70061     -5.34519        -1.575723     -0.676514     -0.439281
O	      0.19774     10.63692     -4.31944        -2.219409     -0.699664      0.128770
O	      8.87027      8.30934     -2.02874        -0.026122     -0.443471     -0.212693
O	      8.85081     12.55039     -6.26457         0.052229     -0.322581      0.409968
O	      2.19185      4.19306     -4.14628         0.262056     -0.411160     -0.369900
O	      2.23886      8.44349     -8.35299         0.774380     -0.685085      0.054701
O	     11.13369      6.30511     -6.13251         0.250611     -0.306337     -0.346244
O	     11.12205     10.48647    -10.44550         0.400844      0.090331      0.600996
O	      2.19053      6.34353     -1.99758         0.278195     -0.195244      0.291665
O	      2.24796     10.52970     -6.25590         1.037909     -0.519544      0.359674
O	     11.14700      8.30729     -4.13445         0.345174     -0.105688      0.311004
O	     11.10449     12.57679     -8.36101         0.280962     -0.618916      0.238497
