# total energy = -589.80099929 eV
 
CRYSTAL
PRIMVEC
-0.000824 4.019809 4.025627 
17.052379 4.076941 -4.086481 
0.009781 8.125363 -8.136703 
PRIMCOORD
123 1
Li	      8.47146      6.06324      1.96985         0.011701      0.021006     -0.025195
Li	      8.45962      6.13599     -6.13647        -0.015435      0.014638     -0.013645
Li	      0.28452     12.17973     -4.18912         0.017027      0.030224     -0.012597
Li	      0.18404      8.13798     -0.10686        -0.006258      0.036805     -0.038759
Li	      8.46520      4.06276     -0.03351         0.014525      0.026422     -0.021112
Li	      8.53341      8.12942     -4.13046         0.005686      0.009905     -0.014146
Li	      0.28228     10.22119     -6.13602         0.014164      0.033985     -0.045771
Li	      0.18861      6.15656     -2.14418         0.014597      0.000479     -0.009344
Li	      2.13741      2.01497     -0.02280        -0.002709      0.002080     -0.000855
Li	      2.11468      6.13818     -4.13387         0.007649      0.005584     -0.003252
Li	     10.38240      4.02580     -2.01200         0.013990     -0.014535      0.018182
Li	     10.62148      8.09035     -6.09211         0.005867     -0.000264     -0.003202
Li	      2.14917      4.03790      2.00758         0.002447      0.005321     -0.008315
Li	      2.16243      8.13898     -2.11412         0.025681      0.007068     -0.006381
Li	     10.62521      6.05268     -0.02082        -0.002132     -0.000335      0.005590
Li	     10.67882     10.09829     -4.09523         0.004278     -0.007614     -0.005574
Li	      4.29865      2.03490     -2.03671         0.001487      0.003227     -0.005869
Li	      4.28703     10.12364     -2.09240        -0.004585      0.007262      0.001227
Li	     12.54514      8.08007     -0.19569        -0.012902     -0.022450      0.022865
Li	     12.58917     12.09687     -4.10190        -0.009480     -0.012852     -0.003120
Li	      4.29334      4.04396     -0.02268         0.003722      0.003552     -0.004452
Li	      4.29052      8.11998     -4.09934        -0.004364      0.000105     -0.008158
Li	     12.54077      6.27074     -2.02607        -0.006533      0.002632      0.031606
Li	     12.58989     10.13121     -6.09790        -0.007678     -0.019303      0.027909
Li	      6.40601      4.02443     -2.01481        -0.000382     -0.017021      0.014576
Li	      6.42075      8.09556     -6.08868        -0.004507     -0.018309      0.021239
Li	     14.92811      6.22405     -4.22813         0.008662     -0.020330      0.016388
Li	     14.88999     10.35909     -8.36487         0.023481     -0.021313      0.026886
Li	      6.41068      6.03553     -0.00612         0.001107     -0.013494      0.015527
Li	      6.43116     10.09899     -4.08054        -0.010065     -0.022188      0.018130
Li	     14.96517      8.24940     -2.24233        -0.016535     -0.022803      0.019744
Li	     14.89770     12.37660     -6.36437         0.003797     -0.021062      0.016480
Ni	     17.01609     10.11524     -2.08907         0.024204     -0.005288      0.044960
Ni	     17.04984     14.15777     -6.16716         0.030503     -0.025506      0.041193
Ni	      8.53283      4.04955     -4.04724        -0.023167     -0.037853      0.036947
Ni	      8.56974      8.10975     -8.12052        -0.030054     -0.066799      0.045708
Ni	     17.03460      8.09718     -4.09330         0.023217     -0.044729      0.029112
Ni	     17.03731     12.19198     -8.14783         0.063063     -0.010784      0.008988
Ni	      8.53541      6.05868     -2.04048        -0.021405     -0.021850      0.041789
Ni	      8.56973     10.11278     -6.11051        -0.027192     -0.057416      0.067152
Ni	      2.13533      4.06474     -2.06136        -0.053676     -0.002444      0.019796
Ni	      2.16338      8.12338     -6.11751        -0.019188     -0.007116      0.014298
Ni	     10.73411      6.06000     -4.04039        -0.013017     -0.012219     -0.012892
Ni	     10.72505     10.13622     -8.14137        -0.069612     -0.008556      0.015894
Ni	      2.13454      6.07602     -0.04443        -0.054948     -0.019066      0.004919
Ni	      2.17530     10.13276     -4.10630        -0.037046     -0.015538     -0.007381
Ni	     10.66748      8.09286     -2.05149        -0.011272      0.012836      0.012225
Ni	     10.71763     12.14225     -6.12483        -0.004538      0.022803     -0.028230
Ni	      4.24880      4.07145     -4.07623         0.013981      0.011313     -0.003227
Ni	      4.26964     12.15017     -4.11956         0.003596      0.002577      0.011054
Ni	     12.86111      6.06948     -6.06841        -0.032866      0.028211      0.014667
Ni	     12.79076     14.07832     -6.13189        -0.020054      0.149811     -0.017022
Ni	      4.24684      6.08096     -2.06323         0.011374     -0.003089     -0.008432
Ni	      4.26685     10.14654     -6.12953        -0.005659     -0.003662     -0.003891
Ni	     12.84175      8.05250     -4.07068        -0.009963     -0.013358      0.015041
Ni	     12.79153     12.15811     -8.06027        -0.015954      0.037164     -0.152305
Ni	      6.37758      6.11114     -4.10419         0.012092      0.065747     -0.061046
Ni	      6.39457     10.16785     -8.17044         0.011292      0.032144     -0.027947
Ni	     14.92699      8.03558     -6.04975         0.024709      0.254126     -0.258130
Ni	     15.21566     12.16522    -10.17896        -0.247575      0.331598     -0.326417
Ni	      6.37784      8.12129     -2.09294         0.030518      0.066971     -0.060997
Ni	      6.39491     12.17692     -6.15708         0.037550      0.042066     -0.037242
Ni	     14.88764     10.05722     -4.05014         0.097286      0.221786     -0.226069
Ni	     14.86115     14.20665     -8.19056         0.024794      0.212528     -0.211491
O	      4.24240      4.16671     -2.15889         0.070227     -0.128292      0.132449
O	      4.26879      8.23324     -6.22170         0.114363     -0.110149      0.110726
O	     12.98930      5.94615     -3.89382         0.056932     -0.058575      0.061029
O	     12.89043     10.17644     -8.16812         0.061202     -0.168528      0.086967
O	      4.24255      6.17233     -0.14473         0.071981     -0.130798      0.125611
O	      4.28726     10.23393     -4.20502         0.077803     -0.126693      0.126093
O	     12.87852      8.20098     -2.07459         0.072880     -0.246590      0.101903
O	     12.94858     12.11503     -6.09514         0.094693     -0.098655      0.131150
O	      6.37490      8.21478     -0.17896         0.018436     -0.133650      0.126912
O	      6.40444     12.27198     -4.24180         0.016337     -0.120935      0.116542
O	     14.85174     10.11816     -2.10409         0.057991     -0.164674      0.143843
O	     14.79913     10.34387    -10.29541        -0.000638     -0.229526      0.129786
O	      6.37748      6.21031     -2.18719         0.016640     -0.128236      0.126809
O	      6.40435     10.26237     -6.25212         0.019326     -0.117945      0.106955
O	     14.94712      8.12045     -4.12347        -0.019904     -0.143519      0.167763
O	     14.79200     12.28724     -8.35657        -0.002252     -0.115273      0.225298
O	      4.24597      5.98922     -3.98085        -0.055758      0.112410     -0.105858
O	      4.26793     10.04633     -8.05393        -0.051597      0.116180     -0.122419
O	     12.96789      7.98663     -6.10610        -0.131883      0.171182     -0.065118
O	      4.25655      7.99050     -1.96341        -0.065627      0.109940     -0.111626
O	      4.29812     12.05897     -6.04150        -0.066863      0.114013     -0.118188
O	     12.95973     10.09822     -4.13323        -0.189077      0.059633     -0.096072
O	     12.88215      6.11431     -0.08407        -0.110254      0.098917     -0.066336
O	      6.38491      5.95454      2.08588         0.009110      0.132515     -0.134684
O	      6.38811      6.00373     -6.00982        -0.002249      0.123137     -0.116719
O	      6.38256      3.94650      0.07572         0.010666      0.137189     -0.133422
O	      6.39332      8.01281     -3.99512        -0.002271      0.126394     -0.118704
O	     17.00485      6.09630     -4.20741        -0.032356     -0.092995      0.294480
O	     16.91191     10.21561     -8.19247        -0.043499     -0.184552      0.074838
O	      8.44128      4.14503     -2.13455        -0.014806     -0.122542      0.123525
O	      8.50769      8.20099     -6.21314        -0.011510     -0.112053      0.121939
O	     16.99007      8.20836     -2.10227        -0.029508     -0.304247      0.070174
O	     16.82644     12.16745     -6.17893        -0.031735     -0.063049      0.198159
O	      8.51651      6.16167     -0.13329        -0.018752     -0.119458      0.114296
O	      8.55867     10.21678     -4.19701         0.001538     -0.107064      0.107920
O	      2.06488      4.16665     -0.15093         0.039768     -0.144704      0.110743
O	      2.06274      8.23894     -4.13510         0.056994     -0.116026      0.183373
O	     10.62217      6.08526     -2.14216         0.092224     -0.124899      0.159321
O	     10.63880     10.16607     -6.23825         0.090287     -0.163064      0.166758
O	      2.06568      6.17588      1.86492         0.055498     -0.120728      0.144224
O	      2.06881     10.15940     -2.20968         0.036920     -0.191205      0.114264
O	     10.62719      4.16431     -4.07037         0.102452     -0.166433      0.114445
O	     10.63704      8.23505     -8.18012         0.086353     -0.156133      0.169058
O	     16.89857      8.05240     -6.14561         0.095713      0.226494     -0.075544
O	     17.05548     12.25226    -10.22501         0.186116      0.017218     -0.112290
O	      8.52955      5.96901     -3.96382         0.015865      0.112841     -0.109912
O	      8.53842     10.03434     -8.03172         0.008628      0.118162     -0.115500
O	     16.89156     10.14685     -4.03071         0.052118      0.066197     -0.249576
O	     16.83609     14.23022     -8.23376         0.090867      0.125530     -0.048788
O	      8.55409      7.99254     -1.94929        -0.019055      0.108277     -0.113064
O	      8.56474     12.04360     -6.02518        -0.020595      0.112833     -0.114603
O	      2.15207      7.98625      0.05281        -0.087859      0.152729     -0.130922
O	      2.21118     12.02641     -4.07227        -0.111368      0.127156     -0.182731
O	     10.88240      6.05366     -5.95120        -0.067452      0.122631     -0.139879
O	     10.78047     10.12800    -10.05562        -0.072359      0.144561     -0.168098
O	      2.14008      5.97619     -1.95532        -0.085595      0.126644     -0.150230
O	      2.20446     10.10980     -6.00825        -0.093188      0.202333     -0.114070
O	     10.76940      7.95711     -4.02640        -0.031356      0.170382     -0.125369
O	     10.78435     12.05098     -8.12764        -0.097855      0.162866     -0.155253
