# total energy = -589.95840976 eV
 
CRYSTAL
PRIMVEC
0.001006 4.021577 4.020542 
17.251465 4.089463 -4.084367 
0.037587 8.087350 -8.084751 
PRIMCOORD
123 1
Li	      8.59320      2.08148     -2.07864         0.010825      0.010376     -0.013134
Li	      8.60113     10.12231     -2.07658         0.009331      0.014481     -0.014619
Li	     17.19685      8.00161     -0.15666        -0.002349      0.028736     -0.040226
Li	      0.31876      3.93530     -3.90718        -0.011885      0.034094     -0.048885
Li	      8.60378      4.09418     -0.06685         0.012829      0.013497     -0.009929
Li	      8.60092      8.11360     -4.08631         0.009339      0.014263     -0.013904
Li	     17.20055      6.19597     -1.95910         0.001821      0.042172     -0.024429
Li	      0.32032      5.91843     -1.92220        -0.015603      0.044532     -0.039028
Li	      2.37420      2.07145     -0.05804        -0.002754      0.000786      0.003674
Li	      2.46653      6.11383     -4.09692         0.001380      0.026790     -0.030048
Li	     10.78500      4.07661     -2.07001         0.009609     -0.010118      0.015118
Li	     10.64892      8.06418     -6.04469         0.031415     -0.016127      0.009143
Li	      2.01588      4.03496      2.00385         0.026490     -0.008239      0.009265
Li	      2.46293      8.14404     -2.11188        -0.005279      0.021949     -0.021245
Li	     10.79452      6.09785     -0.05198         0.013754     -0.015560      0.010706
Li	     10.66984     10.07237     -4.03855         0.031550     -0.009512      0.012826
Li	      4.39799      2.04258     -2.03678         0.003502      0.016332     -0.013775
Li	      4.45061      6.12311     -6.11564        -0.012921     -0.000915     -0.009273
Li	     13.03597      8.04397     -0.00676        -0.022511     -0.006974      0.003443
Li	     12.66885      8.06202     -8.04918         0.009615     -0.007477      0.011038
Li	      4.39642      4.05033     -0.02931         0.009400      0.016078     -0.016145
Li	      4.45873      8.13107     -4.10827        -0.013873      0.007515     -0.001319
Li	     13.03353      6.08847     -2.04892        -0.020003      0.001741     -0.001182
Li	     12.67215     10.06743     -6.04804         0.011344      0.004751     -0.006214
Li	      6.53516      4.03092     -2.01566         0.006420     -0.007734      0.008796
Li	      6.52887      8.07929     -6.06482        -0.000421     -0.019360      0.018359
Li	     14.83374      6.01849     -3.98603        -0.024727     -0.007863      0.012192
Li	     14.81583     10.30427     -8.29175        -0.031487     -0.043470      0.052077
Li	      6.52772      6.04232     -0.00690         0.007672     -0.007451      0.007886
Li	      6.52392     10.08957     -4.05333        -0.010133     -0.017799      0.014857
Li	     15.20987      8.07625     -2.03606        -0.033706     -0.010087      0.009930
Li	     14.84973     12.35342     -6.30834        -0.012121     -0.046279      0.035465
Ni	     17.19963     10.17272     -2.26924        -0.027024      0.039554      0.136223
Ni	      0.10741      6.20367     -6.15917         0.030119     -0.225820      0.239275
Ni	      8.66893      4.04736     -4.04319        -0.003282     -0.063447      0.067111
Ni	      8.63081      8.09109     -8.08598        -0.026511     -0.047087      0.062314
Ni	     17.20999      8.30599     -4.13274        -0.049608     -0.136120     -0.035580
Ni	      0.09100      8.17663     -4.18741         0.009756     -0.243774      0.224234
Ni	      8.66826      6.05825     -2.03131        -0.010851     -0.061244      0.049341
Ni	      8.63064     10.10240     -6.07519        -0.013959     -0.045165      0.034053
Ni	      2.17327      4.09134     -2.07832        -0.005136      0.027198     -0.021580
Ni	      2.16996      8.11642     -6.09931         0.050775     -0.036662      0.044330
Ni	     10.82406      6.08743     -4.06622        -0.012784     -0.020643      0.022194
Ni	     10.78139     10.11002     -8.09678         0.045187     -0.009307      0.019638
Ni	      2.25629      6.07644     -0.04040        -0.054730      0.012474     -0.011446
Ni	      2.18486     10.13436     -4.09916         0.034141     -0.020874      0.015766
Ni	     10.82941      8.09248     -2.06301        -0.012404     -0.010725      0.043296
Ni	     10.78205     12.12280     -6.08271         0.040373     -0.018425      0.002169
Ni	      4.34194      4.06640     -4.05767         0.031897      0.017440     -0.035058
Ni	      4.31385      8.11250     -8.10158         0.051245      0.018426     -0.049349
Ni	     12.95708     10.09152     -2.04588        -0.017432      0.027980     -0.026036
Ni	     12.91538     14.10806     -6.06089         0.059622     -0.036930      0.035888
Ni	      4.34323      6.07254     -2.05137         0.028888      0.028927     -0.024487
Ni	      4.31408     10.11896     -6.09646         0.045886      0.050204     -0.026370
Ni	     12.95264      8.09471     -4.07021        -0.008640      0.032974     -0.001199
Ni	     12.90105     12.11457     -8.08603         0.048693      0.005487      0.009019
Ni	      6.49843      6.09098     -4.07588         0.042548      0.038904     -0.044323
Ni	      6.48036     10.14674     -8.12834         0.036489      0.064190     -0.062893
Ni	     15.07118      8.01163     -5.98697        -0.114992      0.206195     -0.215246
Ni	     15.19698     12.13199    -10.12162        -0.078463     -0.065858      0.055801
Ni	      6.49776      8.10260     -2.06622         0.041357      0.031684     -0.032604
Ni	      6.48359     12.15691     -6.11833         0.022889      0.062576     -0.058500
Ni	     15.00028     10.02095     -3.99661        -0.118126      0.179548     -0.177755
Ni	     15.16984     14.17848     -8.12223        -0.071122      0.001247     -0.014273
O	      4.28780      4.15940     -2.14393         0.042025     -0.160219      0.159018
O	      4.34690      8.20326     -6.19398         0.021508     -0.144140      0.140902
O	     12.87271      6.20655     -4.09203         0.092560     -0.205139      0.146734
O	     12.95283     10.09898     -8.15872         0.077031     -0.186790      0.166889
O	      4.30261      6.16336     -0.12899         0.067984     -0.137277      0.143640
O	      4.31091     10.19767     -4.17380         0.053618     -0.158541      0.145034
O	     12.88842      8.11389     -2.17512         0.112214     -0.163388      0.196498
O	     12.97580     12.18608     -6.07219         0.064273     -0.155926      0.166808
O	      6.49246      4.16950     -4.16599        -0.007475     -0.114576      0.119070
O	      6.48815     12.24935     -4.20436        -0.023398     -0.126293      0.133445
O	     15.15253      6.09695     -6.07939         0.011706     -0.158652      0.150313
O	     15.42692     10.06426    -10.00531        -0.082415     -0.079954      0.067256
O	      6.49255      6.18198     -2.15332        -0.006876     -0.118999      0.112506
O	      6.49134     10.24417     -6.21027        -0.020277     -0.136212      0.135991
O	     15.17262      8.08019     -4.07265         0.037934     -0.153925      0.171892
O	     15.40087     12.02753     -8.04908        -0.060648     -0.056105      0.073970
O	      4.41821      5.98401     -3.96803        -0.098954      0.144696     -0.134894
O	      4.39791     10.05269     -8.02286        -0.075964      0.137013     -0.121213
O	     13.10259      8.11428     -6.01767        -0.075259      0.093241     -0.160882
O	     13.06900     11.95784    -10.03564         0.033521      0.226325     -0.205958
O	      4.39511      7.99343     -1.95867        -0.095128      0.115170     -0.118514
O	      4.34148     12.03282     -5.98726        -0.056692      0.136896     -0.127686
O	     13.05376     10.03424     -4.08142        -0.113946      0.164727     -0.107907
O	     13.06881     14.07137     -7.93802        -0.028953      0.185389     -0.207227
O	      6.46570      5.97335      2.06950        -0.002885      0.127948     -0.120480
O	      6.50751     10.00773     -1.96275        -0.014580      0.132292     -0.134278
O	     15.10357      4.05847     -3.92829         0.053723      0.109417     -0.174847
O	      6.46637      3.96622      0.06317        -0.000186      0.127124     -0.127787
O	      6.50842      7.99762     -3.97231        -0.011183      0.128625     -0.129196
O	     15.07664      5.92863     -2.01799         0.042206      0.176390     -0.099622
O	      8.65460      4.15282     -2.13993        -0.003831     -0.142323      0.141965
O	      8.61272      8.19620     -6.17874        -0.005879     -0.136833      0.126559
O	      0.04184      4.10857      1.92814        -0.013706     -0.147735      0.134934
O	      8.65555      6.16646     -0.12780        -0.002917     -0.133677      0.134543
O	      8.61707     10.20912     -4.17208        -0.007924     -0.129863      0.139171
O	      1.97095      4.09638     -0.20261         0.087786     -0.100165      0.207482
O	      2.06243      8.08753     -4.14634         0.101053     -0.120015      0.127102
O	     10.75684      6.17631     -2.15008         0.057475     -0.134829      0.126906
O	     10.73350     10.20483     -6.18139         0.061981     -0.115798      0.109987
O	      1.96784      2.21665     -2.08132         0.077370     -0.203156      0.100540
O	      2.07505      6.16398     -6.07423         0.098210     -0.124344      0.118040
O	     10.78148      4.17338     -4.16938         0.050950     -0.121247      0.113484
O	     10.72222      8.19084     -8.18183         0.075204     -0.114229      0.114754
O	     17.01735      8.24374     -6.22847         0.115038      0.092358     -0.077363
O	      0.06039      8.14163     -6.12376        -0.032665      0.188820     -0.185023
O	      8.64172      5.96070     -3.94819        -0.001340      0.135235     -0.125847
O	      8.64304     10.00952     -7.99411        -0.007812      0.109962     -0.104724
O	     16.88238     10.38885     -4.35042         0.181629      0.071378     -0.067933
O	      0.05428     10.07786     -4.04014        -0.016483      0.181288     -0.188870
O	      8.64111      7.97590     -1.93658         0.006785      0.137461     -0.141827
O	      8.64346     12.02313     -5.98642        -0.017579      0.120954     -0.118537
O	      2.18938      4.08048     -4.00238        -0.099046      0.097767     -0.155681
O	      2.24504      8.11320     -7.98780        -0.096630      0.151361     -0.189684
O	     10.81955      5.99465     -5.98854        -0.076771      0.116340     -0.119502
O	     10.83225     10.01364    -10.00685        -0.072382      0.122055     -0.122502
O	      2.18970      6.01517     -2.06596        -0.093264      0.157022     -0.097094
O	      2.24022     10.00374     -6.09808        -0.107228      0.181617     -0.157245
O	     10.79801      8.00906     -3.98200        -0.088670      0.128881     -0.146015
O	     10.83263     12.02207     -7.99793        -0.086160      0.116539     -0.112467
