# total energy = -554.02966462 eV
 
CRYSTAL
PRIMVEC
-0.001714 3.837789 3.840715 
16.246181 3.880342 -3.890595 
-0.005154 7.766663 -7.772236 
PRIMCOORD
124 1
Li	      7.73123      5.53858      1.78326        -0.245527     -0.104906      0.695540
Li	      7.73870      9.25173     -1.93529         0.143076      0.386441      0.169312
Li	      0.21179     10.94717     -3.82464        -1.754400      0.279173      0.255493
Li	     15.49554     10.96324     -3.82433         0.567962      1.418529      0.093113
Li	      7.72809      3.71082     -0.04739        -0.283446     -0.685593      0.356297
Li	      7.74655      7.43039     -3.75688         0.126280     -0.011794     -0.162037
Li	      0.21350      9.32147     -5.45093        -2.226859     -0.179518     -0.259552
Li	     15.49012      9.31256     -5.47428         0.909627     -0.006740     -1.197547
Li	      2.16735      1.87025     -0.03558        -0.243281     -0.626889      0.567225
Li	      2.12097      5.58460     -3.75512        -1.303496      0.098847     -0.353704
Li	      9.60903      3.67759     -1.84873         0.689755     -0.607701      0.155960
Li	      9.63615      7.40032     -5.57716         0.579360     -0.457596      0.052155
Li	      1.91791      3.69081      1.80710         0.386063     -0.370081      0.275482
Li	      1.83148      7.37943     -1.88217        -0.154799      0.417543      0.014885
Li	      9.58975      5.51059     -0.01982         0.717547     -0.522963      0.793732
Li	      9.70945      9.23963     -3.74298        -0.060909      0.290522      0.217714
Li	      3.90029      5.52456      1.79476         0.498268     -0.055053      0.446484
Li	      3.90568      9.23570     -1.91059        -0.421418      0.247530      0.235032
Li	     11.41890      7.32949     -0.02770         0.840698     -0.166297      0.865196
Li	     11.68249     11.05877     -3.74449        -0.080402      0.628476      0.287029
Li	      3.90167      3.70436     -0.02609         0.445383     -0.424800      0.343038
Li	      3.90862      7.40825     -3.73983        -0.444821      0.017913     -0.018588
Li	     11.41977      5.50892     -1.83109         1.106080     -0.780098      0.460022
Li	     11.68789      9.26559     -5.60304        -0.074166     -0.467615      0.107776
Li	      5.82921      3.67171     -1.84155         0.026664     -0.747767      0.310802
Li	      5.84679      7.37831     -5.54914        -0.079172     -0.412254     -0.162306
Li	     13.32167      5.70876     -3.88738         1.248049     -1.613205      1.000649
Li	     13.34715      9.19756     -7.36812         0.403467     -0.220144     -0.271271
Li	      5.83317      5.50509     -0.00831        -0.414909     -0.366408      0.862693
Li	      5.83672      9.21318     -3.71749        -0.076904      0.374565      0.132814
Li	     13.61353      7.56614     -2.07176         0.472735      0.142633      1.379873
Li	     13.67499     11.05893     -5.57519        -0.561269     -0.025193      0.630145
Ni	      0.00377      5.49116      1.75620        -1.846918     -0.219470      2.974524
Ni	     15.48849     12.94751     -5.70658         2.606594      2.600869      2.617144
Ni	      7.75595      7.35604     -0.03552        -0.429956      3.151069      3.864589
Ni	      7.78303      7.40540     -7.40336        -0.555844     -3.668576     -3.354644
Ni	     15.50924      7.44900     -3.70809         2.623537     -2.913969      0.412986
Ni	     15.49592     11.19376     -7.46118         3.691325     -2.297039     -2.068725
Ni	      7.75759      5.52836     -1.86591        -0.339930     -1.305670     -0.556512
Ni	      7.78168      9.23864     -5.56718        -0.690132      0.614710      1.066521
Ni	      1.90018      3.70766     -1.87534        -1.349320     -0.469358      0.103329
Ni	      1.91133      7.43596     -5.60570        -1.245581     -2.054843      0.484769
Ni	      9.71623      5.54339     -3.72298        -0.279198     -2.872440     -3.177530
Ni	      9.72109      9.26971     -7.43563        -0.503958     -0.479206     -3.344526
Ni	      1.88986      5.54972     -0.05256        -1.463961      1.932937      1.927095
Ni	      1.95889      9.24702     -3.74908        -1.267027      1.221489      3.595003
Ni	      9.71955      7.38310     -1.88680         0.096703      0.928308      0.381213
Ni	      9.73204     11.09262     -5.60449        -1.318589      1.613719      2.408442
Ni	      3.82469      3.71578     -3.71475         0.127631     -3.504766     -3.441874
Ni	      3.86186      7.41964     -7.42187         0.315793     -2.891121     -3.835432
Ni	     11.68051      9.19229     -1.87894         0.449882      3.595404      3.357065
Ni	     11.64776     12.92349     -5.60654        -0.059805      3.431801      2.001595
Ni	      3.82413      5.54455     -1.88421         0.050573      0.757397      0.961515
Ni	      3.86141      9.25080     -5.58914         0.198830      1.270343      0.439919
Ni	     11.65857      7.38051     -3.70434         0.258699     -0.597280     -0.641737
Ni	     11.65348     11.10041     -7.44748        -0.512275      0.619455     -2.016045
Ni	      5.79305      5.56866     -3.74037         0.807498     -2.871373     -3.945176
Ni	      5.80613      9.27767     -7.44789         0.702388      2.079297     -5.710132
Ni	     13.61591      7.39489     -5.57956         0.444814     -2.805166     -0.346264
Ni	     13.58023     11.01536     -9.18773        -0.119008      3.032441     -4.402331
Ni	      5.78785      7.40160     -1.90683        -0.439661      1.342928      0.575076
Ni	      5.80511     11.11037     -5.61366         0.153170      5.911423     -3.669038
Ni	     13.59892      9.28066     -3.78052         0.710557      2.502975      2.785171
Ni	     13.55556     12.81459     -7.33690         0.230288      4.254530     -0.928560
O	      3.83870      3.80042     -1.96736         1.068145     -2.760209      1.951001
O	      3.86556      7.50542     -5.67653         1.109729     -2.603780      1.884769
O	     11.65432      5.52744     -3.78342         0.115407     -2.629510      0.273477
O	     11.56962      9.37502     -7.47068         0.129294     -3.035675     -0.290237
O	      3.79126      5.62547     -0.12509         1.089266      0.082507      3.095301
O	      3.84853      9.32508     -3.83093         0.948129      0.301618      2.575629
O	     11.75114      7.43371     -1.86629         1.012760     -3.434593      1.899566
O	     11.60693     11.11548     -5.71675         1.238059     -1.990935      3.245603
O	      5.78721      7.48048     -0.15924        -0.026403      0.241370      3.295424
O	      5.81743     11.19002     -3.86540         0.033785     -0.282169      2.866582
O	     13.66898      5.64363     -5.53870         0.420073     -3.071185     -1.220624
O	     13.62842      9.25400     -9.23454         0.068448     -3.735380     -0.236686
O	      5.78826      5.65374     -1.98809        -0.012525     -2.676936      2.097865
O	      5.81885      9.36143     -5.69478         0.123869     -3.453605      2.562892
O	     13.64652      7.36447     -3.81862        -0.554842     -0.657364      2.116998
O	     13.64746     11.04077     -7.42718        -0.219665     -2.485728      3.432320
O	      3.89764      5.46909     -3.64150        -0.393285      1.688172     -2.489310
O	      3.92775      9.17681     -7.34479        -0.862487      2.211224     -2.811946
O	     11.84884      7.28329     -5.52814        -2.396382      0.448889     -1.653161
O	     11.78499     11.11724     -9.22433        -2.598577      0.837399     -2.914005
O	      3.83183      7.28778     -1.79315        -1.204886      2.952928      0.108659
O	      3.87095     10.99667     -5.49982        -1.167373      3.680748     -0.613437
O	     11.75906      9.18964     -3.61168        -1.562000      1.877045     -2.024979
O	     11.79155     12.86860     -7.45861        -2.606688      3.205598     -2.367610
O	      5.81163      1.76495     -1.76554        -0.047081     -1.909338      0.714530
O	      5.80433      9.13720     -1.81142         0.097255      3.489918      0.293402
O	     13.62081      7.41910     -7.26759         0.285070     -0.343630     -4.400453
O	      5.81074      3.60083      0.07153        -0.013627     -0.842762      1.903152
O	      5.80521      7.30824     -3.64205         0.136768      2.027801     -2.837365
O	     13.59245      9.07926     -5.58171         0.327726      4.441711     -1.615586
O	      7.74056      3.78677     -1.96392         0.424114     -3.423432      0.119527
O	      7.76875      7.49382     -5.66050        -0.249597     -2.802737      2.070567
O	     15.41646      7.37180     -1.88542         2.489700     -0.846854      2.176392
O	      0.03140      7.42554     -1.93351        -1.558929     -2.298655      2.651512
O	      7.71535      5.61642     -0.12884         0.232307     -2.295840      3.124122
O	      7.76306      9.33695     -3.83254         0.272814      0.159897      2.974755
O	      1.82735      3.69505     -0.13494        -0.748597     -1.652775      3.666597
O	      1.79772      7.42176     -3.88078        -0.619055     -0.733762      2.242948
O	      9.66221      5.64543     -1.92942         1.054409     -3.233221      2.936941
O	      9.68557      9.35887     -5.65454         1.055613     -2.355605      2.252757
O	      1.83390      1.96747     -1.86911         0.288973     -3.903128      0.294719
O	      1.79907      5.71261     -5.59211        -0.465428     -2.775970     -0.962708
O	      9.65259      7.41292     -0.14646         0.981093     -0.639576      3.551735
O	      9.70978      7.54114     -7.49596         1.130992     -3.091835      0.137241
O	     15.37283      7.35594     -5.52702         3.690781     -0.090015     -2.157642
O	     15.31897     11.24696     -9.42590         3.106479      0.140557     -1.353444
O	      7.76113      5.44585     -3.61843        -0.113472     -0.204173     -3.116147
O	      7.77179      9.15544     -7.31821        -0.163452      2.219220     -2.846002
O	     15.47528      9.23244     -3.74469         1.528665      2.214421     -1.194400
O	     15.32357     12.99462     -7.50618         2.738775      3.621573     -2.818538
O	      7.74803      7.28237     -1.78851         0.145568      2.435222     -2.094595
O	      7.76655     10.99242     -5.48569         0.158126      3.163559     -0.410504
O	      1.90335      3.71614     -3.59749        -1.506945     -0.573739     -2.942315
O	      1.95872      7.41808     -7.33677        -1.830740      0.278321     -3.934018
O	      9.77356      9.12255     -1.84647        -1.037334      2.951581     -0.256618
O	      9.71974     12.82974     -5.55421        -1.443857      3.194317     -0.681425
O	      1.90435      5.42850     -1.87950        -1.608119      2.521974     -1.432396
O	      1.95883      9.16605     -5.58559        -1.681220      3.793037     -1.996892
O	      9.77314      7.33840     -3.62613        -1.116005      2.489361     -2.667194
O	      9.70382     11.00564     -7.38487        -1.475973      2.803771     -2.977631
