# total energy = -90.30923954 eV
 
CRYSTAL
PRIMVEC
4.146210 0.000317 0.000159 
-0.000159 0.000287 -4.145991 
2.073669 8.454187 -2.073531 
PRIMCOORD
16 1
Li	      2.07439      2.27514     -4.14556         0.000818     -0.001227     -0.000257
Li	      4.14852      4.22805     -4.14615        -0.000394     -0.001276      0.000209
Li	      2.07524      4.22554     -2.07340         0.000330      0.000898      0.000394
Li	      4.14908      6.17766     -2.07365        -0.000155     -0.000148     -0.000951
Mn	      2.07541      8.45293     -2.07344        -0.000349      0.002636     -0.000706
Mn	      4.14852      8.45320     -4.14637        -0.001209      0.003006     -0.000534
Ni	      2.07619      6.21702     -4.14704        -0.004330      0.065553      0.003144
Ni	      4.14738      2.23569     -2.07221         0.002586     -0.065166     -0.003708
O	      4.14847      4.16407     -2.07316        -0.004533      0.179891      0.003711
O	      2.07621      6.54007     -2.07403         0.000005      0.026722     -0.000216
O	      4.14709      1.91234     -4.14518         0.002142     -0.029962      0.000123
O	      2.07540      4.28859     -4.14634         0.001713     -0.178045     -0.003174
O	      4.14848      8.45301     -2.07337         0.001014      0.000208      0.000781
O	      4.14921      6.54024     -4.14706         0.000436      0.026946      0.000467
O	      2.07538      8.45312     -4.14642         0.000905     -0.000239      0.001176
O	      2.07427      1.91212     -2.07214         0.001019     -0.029798     -0.000460
