# total energy = -593.66807223 eV
 
CRYSTAL
PRIMVEC
-0.001822 4.078907 4.082016 
17.266883 4.124133 -4.135030 
-0.005478 8.254621 -8.260544 
PRIMCOORD
124 1
Li	      8.73504      2.17748     -2.06763         0.059044      0.113804     -0.251761
Li	      8.74347      6.37186     -6.26812        -0.029380     -0.063123     -0.009982
Li	      0.24472      4.11132      3.94023         0.673866     -0.008040     -0.177626
Li	      0.23691      8.25996     -0.18495        -0.524280     -0.242387     -0.047573
Li	      8.72965      4.19175     -0.05354         0.055972      0.195617     -0.140861
Li	      8.75051      8.39338     -4.24378        -0.034390      0.001808      0.041654
Li	      0.24665      2.27493      2.10317         0.614976      0.029842     -0.106979
Li	      0.23078      6.39535     -2.04873        -0.503944      0.036967      0.154778
Li	      2.44826      2.11263     -0.04019         0.164643      0.169266     -0.158584
Li	      2.39586      6.30838     -4.24178         0.365259     -0.025789      0.093898
Li	     10.85438      4.15421     -2.08834        -0.179062      0.241957     -0.144388
Li	     10.88502      8.35942     -6.29997        -0.060798      0.032319      0.042706
Li	      2.16647      4.16915      2.04130         0.135767      0.113350     -0.115725
Li	      2.06884      8.33583     -2.12610         0.208152     -0.041436     -0.006142
Li	     10.83259      6.22477     -0.02239        -0.170247      0.137076     -0.231920
Li	     10.96781     10.43711     -4.22808         0.016000     -0.052837     -0.019923
Li	      4.40760      2.16164     -2.05465        -0.046794      0.061307     -0.217803
Li	      4.41369      6.35377     -6.24022         0.125563     -0.045815     -0.066461
Li	     12.90063      4.20049     -4.11329        -0.176430      0.078971     -0.254106
Li	     13.19838      8.41310     -8.31179        -0.024008     -0.140115     -0.032233
Li	      4.40733      4.18446     -0.02948        -0.019023      0.119648     -0.097350
Li	      4.41518      8.36837     -4.22452         0.117377      0.028134      0.008642
Li	     12.89978      6.22288     -2.06841        -0.238461      0.232241     -0.171580
Li	     13.20266     10.46643     -6.32921        -0.019245      0.074807      0.010120
Li	      6.58468      4.14758     -2.08023         0.003800      0.178875     -0.087081
Li	      6.60454      8.33454     -6.26831        -0.019899      0.075116      0.011257
Li	     15.04818      6.44862     -4.39119        -0.393698      0.337926     -0.069810
Li	     15.07696     10.38958     -8.32304        -0.076256      0.022100      0.092442
Li	      6.58916      6.21856     -0.00938         0.103754      0.049467     -0.149163
Li	      6.59318     10.40722     -4.19929        -0.024374     -0.066188     -0.024314
Li	     15.37786      8.54672     -2.34026        -0.308078     -0.120488     -0.356202
Li	     15.44729     12.49219     -6.29774        -0.400179     -0.001831     -0.085997
Ni	      0.00607      2.12392     -2.09821         2.857885      0.174972     -0.948740
Ni	      0.23076      6.42249     -6.39315        -3.119471     -1.000320     -0.180488
Ni	      8.76294      4.23048     -4.12213         0.030967     -0.657806     -0.672301
Ni	      8.79173      8.36515     -8.36284        -0.029422      0.633259      0.790912
Ni	      0.25237      4.29027     -0.05364        -2.435370      0.185196      0.199748
Ni	      0.23734      8.52035     -4.29313        -3.068256      0.103986      0.868544
Ni	      8.76299      6.24484     -2.10773         0.035656      0.188012      0.144179
Ni	      8.79019     10.43597     -6.28869        -0.021483     -0.219498     -0.073097
Ni	      2.14644      4.18819     -2.11839         0.602651      0.138861     -0.204908
Ni	      2.15905      8.39967     -6.33221         0.761151      0.573880     -0.262112
Ni	     10.97547      6.26181     -4.20548        -0.012317      0.488398      0.566148
Ni	     10.98097     10.47107     -8.39930         0.071440      0.093371      0.625473
Ni	      2.13480      6.26897     -0.05937         1.244677     -0.062511     -0.295096
Ni	      2.21277     10.44545     -4.23497         0.584032     -0.018439     -0.819314
Ni	     10.97922      8.33996     -2.13133        -0.042352     -0.176371     -0.081724
Ni	     10.99333     12.53024     -6.33084         0.200964     -0.376578     -0.335247
Ni	      4.32037      4.19736     -4.19618         0.097041      0.751436      0.638826
Ni	      4.36237      8.38125     -8.38376         0.067181      0.534359      0.790411
Ni	     13.19614      6.30472     -6.20447        -0.286208     -0.656921     -0.692575
Ni	     13.15915     10.51949    -10.41517        -0.006528     -0.622261     -0.373730
Ni	      4.31974      6.26314     -2.12841         0.122900     -0.077590     -0.224772
Ni	      4.36185     10.44972     -6.31350         0.090709     -0.241888     -0.030038
Ni	     13.16953      8.33703     -4.18444        -0.050439      0.149243      0.123038
Ni	     13.16379     12.53904     -8.41268         0.048805     -0.047703      0.320154
Ni	      6.54384      6.29037     -4.22514        -0.117210      0.607966      0.695174
Ni	      6.55861     10.48007     -8.41315        -0.103321     -1.091553      1.962357
Ni	     15.38055      8.35328     -6.30268        -0.440717      0.657997      0.070683
Ni	     15.34026     12.44297    -10.37847        -0.293090     -0.390441      0.687567
Ni	      6.53796      8.36086     -2.15396         0.081683     -0.186159     -0.162714
Ni	      6.55748     12.55029     -6.34120        -0.031797     -2.702158      1.294235
Ni	     15.36137     10.48346     -4.27049        -0.376868     -0.383925     -0.660030
Ni	     15.31238     14.47538     -8.28777        -0.320705     -0.673817      0.028816
O	      4.33621      4.29296     -2.22233        -0.285125      0.015036     -0.192412
O	      4.36654      8.47813     -6.41221        -0.178637     -0.013804     -0.128405
O	     13.16474      6.24380     -4.27376         0.175919      0.516393      0.097602
O	     13.06905     10.59004     -8.43890         0.055495      0.105912      0.221914
O	      4.28260      6.35454     -0.14129        -0.418058     -0.184282     -0.112927
O	      4.34730     10.53363     -4.32743        -0.086757     -0.197106     -0.026987
O	     13.27410      8.39713     -2.10815        -0.013661      0.288575     -0.380960
O	     13.11120     12.55607     -6.45766        -0.147413      0.139767     -0.175025
O	      6.53907      4.37105     -4.26189        -0.002348     -0.242276     -0.346688
O	      6.57319      8.56136     -8.44838         0.037438     -0.292761     -0.341958
O	     15.44051      6.37506     -6.25653        -1.372948     -0.002715      0.386827
O	     15.39468     10.45333    -10.43135         0.067046      0.759472      0.243795
O	      6.53843      6.38648     -2.24576        -0.001253      0.222216     -0.195721
O	      6.57298     10.57469     -6.43284         0.041514      0.275581     -0.036696
O	     15.41513      8.31891     -4.31352         0.226874      0.005089      0.159253
O	     15.41618     12.47167     -8.38975         0.087000      0.318443     -0.654876
O	      4.40278      6.17789     -4.11344        -0.091065     -0.135363     -0.034634
O	      4.44228      2.11152     -0.03615        -0.040125     -0.265476      0.119252
O	     13.38446      8.22722     -6.24460        -0.113217      0.181495      0.407986
O	     13.31783      4.30343     -2.15928         0.541737     -0.121539      0.372518
O	      4.32843      8.23229     -2.02554         0.100244     -0.098206     -0.203258
O	      4.37812      4.16724      2.04794         0.121839     -0.315724     -0.055444
O	     13.28304     10.38063     -4.07975         0.186480     -0.275156      0.125215
O	     13.32524      6.28176     -0.16472         0.434094     -0.336428      0.366301
O	      6.56481      1.99368     -1.99436         0.047873      2.250084     -1.189547
O	      6.55840      6.24249     -6.12819         0.022192     -0.340008     -0.251587
O	     15.38609      8.38062     -8.20948         0.016324      0.131057      0.211923
O	      6.56382      4.06751      0.08080         0.030015      1.254930     -1.444921
O	      6.55757      8.25540     -4.11407        -0.007622     -0.209767      0.218998
O	     15.35405     10.25594     -6.30511         0.024255     -0.103206      0.177274
O	      8.74376      4.27754     -2.21845        -0.130836      0.389415      0.125822
O	      8.77559      8.46504     -6.39412         0.070155      0.195616     -0.203355
O	      0.14758      4.20307      2.00525        -1.034850      0.414461     -0.394640
O	      0.03548      8.38790     -2.18410         1.417748      0.561738     -0.572843
O	      8.71527      6.34432     -0.14553        -0.057257      0.311403     -0.305967
O	      8.76916     10.54703     -4.32925        -0.027573     -0.185842     -0.260653
O	      2.06417      4.17393     -0.15242         1.868898     -0.070149     -0.501732
O	      2.03070      8.38363     -4.38373         2.101844     -0.314175     -0.179532
O	     10.91444      6.37708     -2.17947        -0.110057      0.222900     -0.409005
O	     10.94082     10.57180     -6.38738        -0.179051      0.002067     -0.276975
O	      2.07158      2.22245     -2.11134        -0.222399      0.517085      0.111715
O	      2.03224      6.45297     -6.31685         2.068173      0.197046      0.572748
O	     10.90541      4.29473     -4.24746        -0.091914      0.087327     -0.290667
O	     10.96818      8.51848     -8.46745        -0.108694      0.166197      0.158053
O	      0.09829      4.18515     -2.10830        -0.321829     -0.330621      0.440140
O	      0.03745      8.58045     -6.51248        -0.924679      0.031062      0.314655
O	      8.76698      6.15164     -4.08738        -0.001134      0.220099      0.286366
O	      8.77902     10.34200     -8.26666         0.105691     -0.253671      0.227621
O	      0.21402      6.30485     -0.09498        -1.120388     -0.453732      0.501575
O	      0.04263     10.55460     -4.34395        -0.764137     -0.828988      0.615889
O	      8.75219      8.22619     -2.02030        -0.036060     -0.189504      0.200178
O	      8.77310     12.41706     -6.19665         0.055840     -0.342135     -0.083614
O	      2.15003      4.19775     -4.06374         0.576382      0.396145      0.127386
O	      2.21256      8.37947     -8.28762         0.427675      0.164867      0.545268
O	     11.04206      6.22594     -6.16779         0.093661     -0.164799     -0.057680
O	     10.98126     10.41359    -10.35606         0.197884     -0.321983      0.009976
O	      2.15115      6.13204     -2.12308         0.454207     -0.076762      0.042552
O	      2.21270     10.35398     -6.30948         0.385646     -0.394939      0.138968
O	     11.03976      8.28948     -4.09608         0.158025     -0.341091      0.100379
O	     10.96144     12.43200     -8.34196         0.153102     -0.156818      0.459249
