# total energy = -91.66417742 eV
 
CRYSTAL
PRIMVEC
0.000011 2.079868 2.079965 
4.174596 -4.238478 4.238671 
4.084916 4.194729 -4.194882 
PRIMCOORD
16 1
Li	      4.22873      4.01433      0.14316        -0.003145     -0.008638      0.008947
Li	      4.19930      2.02369      2.13353         0.000393      0.013705     -0.014917
Li	      6.07887      2.15573     -0.07863        -0.004767     -0.012045      0.011877
Li	      4.03794      0.09400      4.06301         0.011456     -0.010497      0.011166
Mn	      8.21962      2.04175      2.11574        -0.040098      0.026155     -0.025976
Mn	      2.13761      2.10499     -0.02744         0.055881      0.005832     -0.005307
Ni	      2.18776     -0.13327      2.21049        -0.045587      0.099441     -0.097223
Ni	      6.12224     -0.04043      2.11790         0.017117     -0.054057      0.055396
O	      2.05475     -0.00525      4.16241        -0.013849     -0.149806      0.148820
O	      6.35064      1.98931      2.16818         0.104784      0.105396     -0.106325
O	      4.25562     -2.28075      4.35861         0.015225     -0.030370      0.029405
O	      2.02148      4.09045      0.06701         0.009732     -0.066190      0.065136
O	      4.10259      4.33127     -2.25393         0.013826      0.028469     -0.028221
O	      1.96069      2.14566      2.01182        -0.034387      0.043542     -0.043641
O	      3.94243      2.07180      0.00575        -0.075131      0.008862     -0.009472
O	      4.16644     -0.02340      2.10067        -0.011449      0.000200      0.000334
