# total energy = -602.75190992 eV
 
CRYSTAL
PRIMVEC
0.001555 4.027844 4.056082 
16.973085 4.079211 -4.101407 
-0.014745 8.170569 -8.227332 
PRIMCOORD
125 1
Li	      8.66273      6.09876      1.90899         0.005053      0.005718     -0.165608
Li	      8.51098     10.20462     -2.18706        -0.021033     -0.057087     -0.081796
Li	      0.08222      0.05501     -0.02209        -0.085741      0.001385     -0.037123
Li	      0.00138      4.13713     -4.13818         0.099323      0.002241     -0.060773
Li	      8.66755      4.25088      0.06214        -0.005757      0.122729     -0.043745
Li	      8.50051      8.25644     -4.16969        -0.013952      0.045879      0.050306
Li	      0.07597      2.06281      2.00087        -0.076556      0.032058     -0.009394
Li	      0.02199      6.15143     -2.10322         0.079469      0.053512     -0.016813
Li	      2.09279      2.02066      0.00602         0.086228      0.108250     -0.067212
Li	      2.10123      6.10886     -4.11282        -0.022417      0.015558      0.010879
Li	     10.84281      4.09862     -2.06868         0.070659      0.126373     -0.099411
Li	     10.57689      8.18524     -6.20232         0.013394      0.009326      0.015249
Li	      2.05133      4.04283      2.03695         0.048905      0.083065     -0.118919
Li	      2.12804      8.13839     -2.07192        -0.015162     -0.023589     -0.004962
Li	     10.63904      6.13376     -0.04733        -0.003160      0.052216     -0.053731
Li	     10.55451     10.17165     -4.13180        -0.026428     -0.018624     -0.009743
Li	      4.05826      2.03080     -2.02849        -0.053957     -0.010494     -0.030262
Li	      4.33527      6.12585     -6.15561         0.011289      0.016627      0.007385
Li	     12.88820      4.13518     -4.13164        -0.009841      0.005751     -0.038909
Li	     12.82028      8.19279     -8.23886         0.015635      0.045099      0.016861
Li	      4.05487      4.04129      0.03867        -0.079825      0.051567     -0.051240
Li	      4.35848      8.18705     -4.20368         0.019364      0.008781     -0.037769
Li	     12.78785      6.14376     -2.09835        -0.010884      0.022004     -0.007457
Li	     12.81865     10.21189     -6.20437         0.021517     -0.006396     -0.029856
Li	      6.27506      4.14603     -2.11152        -0.016352      0.035411     -0.021149
Li	      6.41292      8.15267     -6.15888        -0.015078      0.017921      0.016288
Li	     14.93993      6.11045     -4.09388        -0.085979     -0.020735      0.059655
Li	     14.97194     10.20558     -8.22724        -0.156484      0.002429      0.028870
Li	      6.41828      6.27509     -0.21669         0.010496      0.009413     -0.050415
Li	      6.45214     10.15156     -4.13744         0.023757     -0.005492     -0.025959
Li	     14.93895      8.13223     -2.06843        -0.058980     -0.067500      0.034698
Li	     14.96029     12.23189     -6.20055        -0.142532     -0.048656      0.014974
Ni	      0.01064      2.03773     -2.02182         0.572142      0.029695     -0.615666
Ni	      0.04012      6.13096     -6.17198         0.174692      0.211213      0.301740
Ni	      8.48514      8.12906     -0.09891        -0.021838     -0.395093     -0.108392
Ni	      8.49376     12.18949     -4.16929        -0.096055     -0.297468     -0.315848
Ni	      0.01287      4.04854     -0.00035         0.596194      0.417035     -0.206925
Ni	      0.04236      8.15463     -4.13173         0.158151     -0.108890     -0.009727
Ni	      8.52613      6.15494     -2.04353        -0.034009      0.087969      0.051720
Ni	      8.50192     10.21386     -6.15486        -0.086001      0.030426      0.202284
Ni	      2.17170      4.06640     -2.06288         0.042314      0.162134      0.189619
Ni	      2.19787      8.18952     -6.20227         0.127088      0.019929      0.259697
Ni	     10.61695      6.12846     -4.12713        -0.024623      0.004016      0.093701
Ni	     10.65960     10.27460     -8.29211         0.184652      0.008506      0.107258
Ni	      2.17389      6.09868     -0.02005         0.083119     -0.080259     -0.018306
Ni	      2.20929     10.20340     -4.16592         0.105366     -0.186416     -0.128777
Ni	     10.59358      8.16352     -2.10936        -0.040473     -0.190087     -0.111934
Ni	     10.62005     12.30126     -6.25710         0.009992     -0.204395     -0.112954
Ni	      4.33423      4.06377     -4.05905         0.025054     -0.210940     -0.263581
Ni	      4.31038      8.20028     -8.25150         0.079847      0.191734      0.197054
Ni	     12.71635      6.15604     -6.19037        -0.035295      0.259690      0.209781
Ni	     12.74690     10.26134    -10.31992         0.054885      0.201789      0.301993
Ni	      4.29952      6.08314     -2.04031         0.047130      0.049209      0.028430
Ni	      4.31597     10.22492     -6.22905         0.114657     -0.067498     -0.044479
Ni	     12.71430      8.16775     -4.15672        -0.021773     -0.068011     -0.041110
Ni	     12.74548     12.28759     -8.28656         0.056077     -0.110553     -0.000530
Ni	      6.42545      6.10712     -4.13314         0.018342      0.088382      0.046449
Ni	      6.42815     10.30054     -8.30128        -0.540666     -0.489404      0.519559
Ni	     14.89009      8.20167     -6.22351        -0.278047      0.290882      0.171257
Ni	     14.91138     12.30641    -10.34002        -0.233494     -0.268238      0.562419
Ni	      6.43525      8.17877     -2.13950         0.043383     -0.201044     -0.149147
Ni	      6.40915     12.17282     -6.13854         0.040361     -0.063100     -0.172029
Ni	     14.88247     10.22537     -4.18741        -0.107384     -0.003815     -0.153397
Ni	     14.90369     14.33008     -8.30268        -0.198658     -0.710784      0.335139
O	      4.31549      4.04213     -2.14545         0.040165      0.187309      0.177455
O	      4.28268      8.32117     -6.26146        -0.012879     -0.053336      0.045430
O	     12.74455      6.24557     -4.19657         0.003518     -0.055939     -0.053838
O	     12.73089     10.34131     -8.36179        -0.034679     -0.114439      0.021134
O	      4.42172      6.15032      0.01087        -0.000502     -0.000960     -0.145636
O	      4.33177     10.24703     -4.31414        -0.030273     -0.149335      0.023576
O	     12.71106      8.28829     -2.17042         0.014077     -0.196888     -0.063320
O	     12.71995     12.38071     -6.34882        -0.031796     -0.202460      0.112922
O	      6.55340      4.17340     -4.06245        -0.059430      0.058025      0.113330
O	      6.54266      8.29464     -8.27344        -0.061840      0.042123      0.257111
O	     14.86432      6.28289     -6.30343        -0.098940     -0.276688     -0.025484
O	     14.90028     10.38573    -10.41833        -0.198018     -0.180894     -0.010355
O	      6.46133      6.14693     -2.20009         0.007410     -0.071343      0.079284
O	      6.56992     10.23395     -6.30152        -0.110343     -0.016402      0.008415
O	     14.87528      8.29095     -4.28182        -0.118151     -0.016751      0.096698
O	     14.89927     12.39424     -8.39502        -0.185654      0.020368      0.098241
O	      4.50142      5.98582     -4.07917        -0.211546      0.153182      0.128833
O	      4.40707     10.23236     -8.16983         0.020343     -0.046522      0.062034
O	     12.76745      8.06366     -6.13110         0.004475      0.058119     -0.007995
O	     12.80965     12.18465    -10.22602        -0.015323      0.016922     -0.077468
O	      4.48317      8.10380     -1.93177        -0.071224     -0.090176     -0.072419
O	      4.46149     12.18375     -6.22913         0.006341     -0.081123     -0.014216
O	     12.71508     10.08697     -4.10953         0.053474      0.064358     -0.062228
O	     12.74625     14.22688     -8.18972         0.003368      0.025842     -0.099539
O	      6.41806      6.05914     -6.01371        -0.013067      0.229324     -0.027909
O	     14.92913      3.99512     -4.00364        -0.006430      0.739133     -0.500948
O	     14.90204      8.12046     -8.13566        -0.074969     -0.119180     -0.131323
O	      6.40617      7.96405     -4.14632         0.005315      0.104784     -0.033227
O	     14.92015      6.01908     -1.95980        -0.006015      0.493196     -0.582377
O	     14.90895     10.12623     -6.11542        -0.080580     -0.033146      0.058482
O	      0.07485      2.14330     -0.13182        -0.454481     -0.213807      0.437803
O	      0.02582      6.22605     -4.23903         0.153106      0.033500     -0.009832
O	      8.51102      8.34510     -6.37803         0.028866     -0.012442      0.244484
O	      0.03838      4.16179      1.90848        -0.415622     -0.190505      0.182757
O	      0.01434      8.25962     -2.20506         0.134651     -0.117651     -0.075451
O	      8.43334      6.20794     -0.00933        -0.045317     -0.015492     -0.094947
O	      8.53356     10.22746     -4.19031         0.028380     -0.077522      0.030626
O	      2.11225      4.17499     -0.04978         0.111091      0.059068     -0.154868
O	      2.16679      8.26810     -4.25067        -0.040529     -0.046584     -0.025407
O	     10.54458      6.11420     -2.19988        -0.074179      0.078885     -0.040299
O	     10.42687     10.28317     -6.38982         0.088017      0.070188     -0.038978
O	      2.10186      6.10794      1.90911         0.112496      0.035606     -0.087192
O	      2.18834      6.26005     -6.29799        -0.007236     -0.011927      0.132777
O	     10.40510      4.18586     -4.11522         0.042861      0.155545      0.029581
O	     10.42719      8.37250     -8.31162         0.050506      0.080103      0.104434
O	      0.00552      3.95906     -1.94619         0.185135      0.116860      0.049719
O	      0.01752      8.06693     -6.07336         0.378241      0.013392     -0.012214
O	      8.38903      5.97696     -4.06294         0.193212      0.246940      0.120360
O	      7.53050      3.17252     -1.05117         0.553991      0.592881     -0.495658
O	      0.07421      6.00950      0.07066        -0.538255     -0.172005      0.148594
O	      0.01798     10.09069     -4.03481         0.361962     -0.038042     -0.145334
O	      8.41983      8.15194     -2.10545         0.076144     -0.067027     -0.057329
O	      8.42133     12.22747     -6.16797         0.038322     -0.017305      0.009779
O	      2.23985      8.02701     -0.00190         0.040060      0.025830     -0.078141
O	      2.19142      8.11185     -8.13960        -0.004120     -0.063332     -0.116792
O	     10.64205      6.11925     -6.03097        -0.020704      0.113116     -0.019932
O	     10.60710     10.28331    -10.19034        -0.079956     -0.008693      0.072213
O	      2.21938      6.07540     -1.94844         0.067219     -0.061897     -0.051492
O	      2.17820     10.12751     -6.11377        -0.002418      0.015982      0.074520
O	     10.63466      8.03226     -4.11938        -0.042506      0.029616      0.031027
O	     10.59997     12.18024     -8.29464        -0.075866     -0.051735      0.142319
