# total energy = -554.90546159 eV
 
CRYSTAL
PRIMVEC
0.001625 4.208195 4.237697 
17.733074 4.261862 -4.285052 
-0.015406 8.536416 -8.595720 
PRIMCOORD
125 1
Li	      9.45425      2.44895     -2.15392         0.127460      0.296756     -1.210617
Li	      9.28859      6.93074     -6.62500        -0.053092     -0.398260     -0.294962
Li	      0.88384      0.43930     -0.02624        -4.777387      0.097472     -0.438962
Li	      0.00159      4.70434     -4.32732         6.681040      0.225671     -0.549889
Li	      9.46114      4.64007      0.06783         0.130096      0.690041     -0.753271
Li	      9.27878      9.01237     -4.55145        -0.058464      0.189036      0.315411
Li	      0.87695      2.44251      1.99219        -4.866035      0.137061     -0.073405
Li	      0.02402      6.71464     -2.29579         6.030867      0.368723     -0.112885
Li	      2.28441      2.20567      0.00656         5.149262      0.785923      0.697488
Li	      2.29362      6.66817     -4.48938        -0.203029      0.129853      0.036817
Li	     11.83555      4.47388     -2.25809         0.280646      1.019711     -0.871700
Li	     11.54529      8.93466     -6.77018         0.020934      0.106275      0.094655
Li	      2.23915      4.41297      2.22345         5.284479     -0.372040      0.418754
Li	      2.32289      8.88352     -2.26161        -0.107881     -0.115238     -0.076882
Li	     11.61312      6.69535     -0.05166        -0.267045      0.472257     -1.328625
Li	     11.52086     11.10294     -4.51009        -0.154358     -0.083990     -0.042991
Li	      4.42990      2.40516     -2.02447        -0.362978      0.272815     -1.227720
Li	      4.73220      6.68671     -6.71920         0.107192      0.077516      0.147357
Li	     14.06828      4.70222     -4.32018        -0.426215      0.321321     -1.406513
Li	     13.99407      8.94289     -8.99318         0.121653      0.246142      0.167938
Li	      4.42613      4.41130      0.04221        -0.470989      0.646295     -0.589466
Li	      4.75753      8.93663     -4.58855         0.157593     -0.001297     -0.198414
Li	     13.95867      6.70627     -2.29047        -0.326280      0.464765     -0.394551
Li	     13.99230     11.14687     -6.77243         0.157666     -0.133432     -0.121110
Li	      6.84960      4.52563     -2.30485        -0.063322      0.595331     -0.459069
Li	      7.00006      8.89910     -6.72276        -0.081351      0.223663      0.120137
Li	     16.30779      6.66991     -4.46872        -1.001490      0.212433      0.295420
Li	     16.34271     11.13997     -8.98050        -8.313532     -0.059822      0.232398
Li	      7.00593      6.84962     -0.23653         0.079733      0.359968     -0.641517
Li	      7.04289     11.08101     -4.51625         0.128964      0.031037     -0.177178
Li	     16.30671      8.87679     -2.25781        -0.703022     -0.330356     -0.044731
Li	     16.33002     13.35181     -6.76826        -8.357792     -0.537331      0.058696
Ni	      0.01167      2.41272     -2.01718         9.766740     -1.629437      0.710303
Ni	      0.04379      6.69229     -6.73707         7.291715     -0.067343      2.177921
Ni	      9.26039      4.66513     -4.34566         0.033434     -1.961556     -2.080866
Ni	      9.26980      9.09733     -8.78873        -0.103265     -2.588889     -0.707791
Ni	      0.01404      4.41922     -0.00038        10.451264     -1.606803      1.455425
Ni	      0.04622      8.90124     -4.51001         8.346474     -1.898402      1.215675
Ni	      9.30676      6.71847     -2.23062        -0.070457      1.632770     -0.015774
Ni	      9.28034     11.14901     -6.71838        -0.201692      0.029297      1.484188
Ni	      2.37053      4.43871     -2.25175         0.533231      1.253284      0.850687
Ni	      2.39909      8.93932     -6.77013         1.595025     -0.174613      2.041088
Ni	     11.58901      6.68957     -4.50500         0.277212      0.372353      0.192415
Ni	     11.63557     11.21531     -9.05131         1.384513     -0.072106      0.846293
Ni	      2.37292      6.65707     -0.02188        11.237506     -0.671268      0.012517
Ni	      2.41157     11.13759     -4.54733         1.302255     -1.196986     -0.716032
Ni	     11.56351      8.91095     -2.30249         0.006259     -0.912551     -0.736687
Ni	     11.59238     13.42752     -6.82998         0.197996     -1.423022     -0.479675
Ni	      4.73112      4.62426     -4.24094        -0.190345     -0.749639     -1.260548
Ni	      4.70502      8.95108     -9.00699         0.061872      0.778015      1.544234
Ni	     13.88062      6.71967     -6.75714        -0.590399      1.683371      1.312896
Ni	     13.91398     11.20084    -11.26478        -0.165724      1.146190      2.120586
Ni	      4.69317      6.64010     -2.22712         0.159535      0.438977      0.165372
Ni	      4.71113     11.16108     -6.79936         0.158210     -0.863753      0.167076
Ni	     13.87839      8.91556     -4.53729        -0.398160     -0.319901     -0.234208
Ni	     13.91241     13.41262     -9.04525        -0.122873     -0.841664      0.196533
Ni	      7.01375      6.66628     -4.51156        -0.057638      0.428822      0.375476
Ni	      7.01670     11.24363     -9.06132        -6.574276     -4.988953      5.121156
Ni	     16.25338      8.95259     -6.79332        -9.684136      3.095021      0.016630
Ni	     16.27663     13.43316    -11.28673        -8.456038     -0.896647      2.395156
Ni	      7.02445      8.92760     -2.33538         0.247397     -0.885590     -0.531967
Ni	      6.99594     13.28731     -6.70056         0.176230     -1.849973      0.292927
Ni	     16.24506     11.16157     -4.57079        -1.427228     -0.110784     -0.784517
Ni	     16.26824     15.64211     -9.06285        -8.177315    -11.674236     -1.366599
O	      4.71061      4.41223     -2.34189        -0.162336      1.266311      0.121185
O	      4.67477      9.08302     -6.83473        -0.394565      0.308645     -0.640357
O	     13.91143      6.81739     -4.58080        -0.087591      0.470527     -0.774345
O	     13.89648     11.28813     -9.12738        -0.696278      0.385482     -0.686722
O	      4.82656      6.71343      0.01187        -0.752498      0.618896     -1.229640
O	      4.72837     11.18521     -4.70912        -0.501632      0.097640     -0.514978
O	     13.87485      9.04714     -2.36914         0.025962     -0.366625     -0.978958
O	     13.88455     13.51425     -6.93010        -0.353686     -0.491828     -0.489931
O	      7.15341      4.55550     -4.43439         0.085105      0.916051      0.288919
O	      7.14169      9.05408     -9.03093         0.214324      0.864131      0.578559
O	     16.22532      7.04655     -6.69080        -7.977333     -1.003228     -2.232210
O	     16.26458     11.52504    -11.18246        -7.650385     -0.684966      0.512995
O	      7.05290      6.70972     -2.40153         0.176951      0.127524      0.019703
O	      7.17145     11.17095     -6.87847        -0.101250      0.867337     -0.676197
O	     16.23722      9.05005     -4.67384        -8.484639      1.964120     -0.739690
O	     16.26340     13.52902     -9.16364        -8.285775      0.484759      0.213315
O	      4.91356      6.53387     -4.45265        -0.101870      0.055621      1.070592
O	      4.82598      2.63279     -0.32212         1.124072     -1.215869      1.670697
O	     13.93641      8.80195     -6.69245         0.810686     -0.377319      0.415196
O	     13.99787      4.76383     -2.56657         0.732113     -0.746280      1.455660
O	      4.89365      8.84576     -2.10864         0.237537     -1.117244      0.215049
O	      4.88537      4.76284      1.79628         0.999727     -1.050149      1.032346
O	     13.87925     11.01051     -4.48579         0.758840     -0.542851      0.032228
O	     13.92867      6.99304     -0.34384         0.783735     -1.156372      0.039660
O	      7.00568      6.61390     -6.56431        -0.024054      0.076750      0.370270
O	     16.29600      4.36089     -4.37019         0.000752     13.339255     -2.010198
O	     16.26650      9.05237     -8.69079        -6.053316     -1.437243     -0.219052
O	      6.99270      8.69322     -4.52595        -0.032532     -0.224425      0.566546
O	     16.28620      6.57017     -2.13924        -0.136606      3.721971     -3.898482
O	     16.27397     11.05336     -6.67534        -5.494378     -0.616294      0.710624
O	      0.87572      2.53036     -0.33576        -7.318796      0.983868      0.174862
O	      0.02818      6.79610     -4.62715         8.243230      0.826340     -0.643444
O	      9.29027      9.10916     -6.96198         0.053419      0.527641      0.122041
O	      0.83592      4.73366      1.89134        -8.175706      0.757623     -1.057290
O	      0.01566      9.01585     -2.40694         7.549279     -0.549662     -0.909604
O	      9.20547      6.77633     -0.01019        -0.437623      0.858712     -1.044743
O	      9.31486     11.16385     -4.57395         0.031777      0.649745     -0.804934
O	      2.30565      4.55724     -0.05434         0.138703      1.426270     -1.370526
O	      2.36517      9.02510     -4.63985        -1.030164      0.129973     -0.483970
O	     11.51001      6.67401     -2.40130        -0.958456      0.940546     -0.818351
O	     11.38152     11.22467     -6.97486        -0.409193      0.683175     -0.719021
O	      2.29267      2.45897     -2.15379         0.380793      1.052442     -1.587744
O	      2.38871      6.83320     -6.87461        -0.911052      0.385413      0.794080
O	     11.35776      4.56910     -4.49200        -0.778690      1.395951     -0.340518
O	     11.38189      9.13907     -9.07261        -0.653976      0.912838      0.186710
O	      0.00601      4.32154     -2.12438         9.171580     -0.099703      0.838617
O	      0.01913      8.80551     -6.62941        10.549196     -0.443374      1.410832
O	      9.15711      6.52419     -4.43493         0.338429      0.633282      1.129479
O	      8.21999      3.46299     -1.14742         6.134115      4.521786     -3.657864
O	      0.87503      6.75055     -0.11474       -12.262755      0.622454     -0.943615
O	      0.01961     11.01457     -4.40422         9.341996     -1.423616      0.911345
O	      9.19071      8.89830     -2.29821        -0.222537     -1.156543      0.336069
O	      9.19237     13.34698     -6.73269        -0.399073     -0.864436      1.018750
O	      2.44329      4.55375     -4.23977         0.972131     -0.525754      0.171314
O	      2.39213      9.04298     -8.69508         4.719667     -2.664884     -0.457326
O	     11.61640      6.67951     -6.58315         0.299071      0.020637      0.675850
O	     11.57826     11.22482    -11.12334         0.120722     -0.809556      1.935158
O	      2.42258      6.63165     -2.12683         0.861894     -0.850021      0.376844
O	      2.37765     11.05476     -6.67353         4.718137     -0.518528      1.056708
O	     11.60832      8.76766     -4.49653         0.339343     -0.529196      0.758335
O	     11.57047     13.29543     -9.05407         0.064811     -0.840029      1.368668
