# total energy = -102.35159358 eV
 
CRYSTAL
PRIMVEC
0.072371 8.085012 8.084040 
4.198822 4.021704 8.204835 
4.162729 2.070954 2.070930 
PRIMCOORD
16 1
Li	      4.19321     10.07055     10.07493        -0.004447     -0.014265     -0.014376
Li	      6.34922     10.12191     12.28844         0.000549      0.009067      0.000387
Li	      2.06998      2.02651      4.05911        -0.000530     -0.008647     -0.001935
Li	      2.15021      4.07892      6.10522         0.001209      0.000357      0.008520
Li	      0.09073      6.14348      6.14811         0.022766      0.014671      0.014777
Li	      6.26883      8.07561     10.23632         0.000021     -0.002422     -0.008690
Ti	      0.07839      1.96479      1.97003         0.210851      0.001990      0.002267
Ti	      4.13957      6.16330      6.16814        -0.216866     -0.001495     -0.000922
O	      1.94731      1.94471      1.95000        -0.245652     -0.000789      0.000057
O	      4.24464     10.11643     12.21275         0.002952      0.005121      0.005899
O	      2.11365      4.06412      4.06916        -0.002485     -0.004325     -0.005628
O	      4.19445      4.17150      6.03157        -0.005601      0.085054     -0.086203
O	      2.27540      6.17980      6.18450         0.244132     -0.000576      0.000218
O	      4.20839      6.07417      8.17052         0.003168      0.007334      0.003710
O	      2.14744      8.11240      8.11678        -0.003772     -0.003954     -0.004130
O	      4.23080      7.97719     10.31042        -0.006297     -0.087120      0.086050
