# total energy = -95.66331849 eV
 
CRYSTAL
PRIMVEC
-0.030668 4.196832 4.150542 
6.278460 2.110869 8.244854 
4.200760 4.203592 4.115829 
PRIMCOORD
12 1
Li	      0.00790      4.13408      4.09621        -0.006611      0.003580      0.007130
Li	      2.07681      2.19860      4.17268        -0.009695      0.004307     -0.023771
Ti	      2.14273      4.29468      6.13694        -0.014117      0.033012     -0.001873
Ti	      8.41642      8.41529     12.50781        -0.009792     -0.005472     -0.010879
Ti	     10.29867      8.40917     14.40587         0.054556     -0.000855      0.034874
Ti	      4.23750      2.00484      6.12141        -0.023026     -0.043172     -0.023627
O	      1.95328      2.09628      2.22222         0.014292      0.010642     -0.017650
O	      4.13056      6.28844      8.24949         0.008453     -0.008936      0.026582
O	      6.28797      6.31933     10.30237        -0.006951      0.002712      0.009056
O	      8.38839      6.34336     12.34213         0.000485      0.024553      0.013548
O	      4.23368      4.18042      6.16837         0.000711     -0.012211     -0.023086
O	      6.30715      4.18548      8.22067        -0.008303     -0.008159      0.009695
