# total energy = -108.40038625 eV
 
CRYSTAL
PRIMVEC
0.012602 14.489229 14.635261 
2.096009 2.068152 4.183100 
2.095603 6.210477 4.181079 
PRIMCOORD
14 1
Li	      2.18318     16.55544     18.60827        -0.001888      0.002172      0.010003
Li	      4.00548     16.55632     16.79271        -0.017062      0.000643     -0.006006
Li	      4.18952     20.69649     20.91765         0.018046      0.001599      0.014015
Ti	      2.05809      4.13794      6.19842        -0.005982     -0.003549      0.004136
Ti	      2.13110     10.34807      8.51603         0.011146      0.004546      0.007272
Ti	      2.10499      8.27558     10.43955        -0.005497      0.004202     -0.023346
Ti	      0.08642     10.34853     10.40991         0.025833     -0.002066     -0.003100
O	      2.00114     16.55811     16.59473        -0.055141     -0.000930     -0.045775
O	      2.14861     18.62662     18.83196         0.016850      0.001566      0.045271
O	      2.10034      6.20837      6.32554        -0.014655     -0.000995     -0.007648
O	      2.15718      8.27673      8.35522        -0.000881      0.002558     -0.019190
O	      2.11499     10.34728     10.65549        -0.019465     -0.005278      0.001664
O	      2.14844     12.41728     12.53967         0.014547     -0.000789      0.019823
O	      2.12279     14.48759     14.59125         0.034149     -0.003679      0.002881
