# total energy = -132.76902020 eV
 
CRYSTAL
PRIMVEC
0.000445 2.082548 2.081139 
18.333339 -0.102548 18.838831 
6.130620 2.090710 4.155522 
PRIMCOORD
18 1
Li	     24.36517      2.02200     22.96577        -0.001537     -0.005021     -0.008123
Li	     12.25530      4.05934     12.59641         0.000385     -0.005104      0.006728
Li	     14.28000      4.12749     14.61014        -0.001272     -0.000499     -0.000231
Li	     10.17324      0.02223     10.38716         0.000558      0.004631     -0.008871
Li	     16.39680      1.95556     18.85505        -0.000889      0.005136      0.008170
Ti	      8.07935      2.11449      6.21543        -0.106312      0.009258     -0.016861
Ti	      4.15460      2.04497      6.28569         0.098566     -0.045407      0.051928
Ti	     18.27393      2.03548     16.69632        -0.099517      0.045316     -0.049838
Ti	     14.34906      1.96580     16.76659         0.106341     -0.009603      0.017801
O	     20.38095      1.98879     20.91042        -0.001448      0.000442      0.001179
O	      4.02478      2.03983      4.20929        -0.020760     -0.033034      0.026814
O	      6.11426      2.09915      6.23260        -0.023493     -0.002798     -0.011196
O	      8.19556      2.13561      8.27524         0.035272      0.024889     -0.037229
O	     10.19356      2.13860     10.35314         0.009042      0.069801     -0.061291
O	     12.23507      1.94193     12.62900        -0.010596     -0.067832      0.063649
O	     14.23286      1.94471     14.70685        -0.032863     -0.025448      0.036678
O	     16.31412      1.98134     16.74950         0.026242      0.002458      0.008253
O	     18.40366      2.04050     18.77273         0.022281      0.032814     -0.027560
