# total energy = -126.23416393 eV
 
CRYSTAL
PRIMVEC
4.137961 24.705602 14.177203 
4.116374 8.700140 6.307264 
5.468944 16.926101 7.860689 
PRIMCOORD
18 1
Li	      8.69613     33.82921     20.42908         0.004320     -0.000882      0.005946
Li	      1.81427      8.65399      4.77303         0.002729      0.003401      0.009002
Li	      6.36762     20.09697     12.56572        -0.006743      0.004346      0.003214
Li	      6.74015     22.82864     14.18851         0.000796      0.000099     -0.010864
Li	      3.62789     19.64746     11.08627         0.003563     -0.004777     -0.004683
Li	      8.20155     31.07630     18.86157        -0.000907      0.003853     -0.001603
Ti	      0.81886      3.10756      1.57498        -0.302541     -0.294329     -0.003587
Ti	      1.33085      5.87196      3.18069         0.214803     -0.206634      0.295948
Ti	      3.15117     16.85430      9.44975        -0.292423     -0.286341      0.011370
O	      6.83209     27.42206     15.74789        -0.147108     -0.149786      0.003497
O	      7.24140     30.26722     17.34273        -0.526627      0.092346     -0.007637
O	      7.90293     33.04632     18.78764         0.221480      0.215707     -0.428437
O	      4.19026     11.07578      6.41747         0.218725      0.208409      0.422614
O	      4.69223     13.70684      7.95669         0.103973     -0.085614      0.151551
O	      5.02181     16.44114      9.43995        -0.150503     -0.147087      0.006020
O	      5.56388     19.30181     10.91107         0.214436      0.212313     -0.430208
O	      6.05776     22.06397     12.50704         0.216221      0.217851     -0.448749
O	      6.53622     24.80219     14.29513         0.225806      0.217126      0.426607
