# total energy = -50.96171871 eV
 
CRYSTAL
PRIMVEC
-0.000337 2.075112 2.077548 
7.999592 -0.159254 8.467837 
3.998059 2.072970 2.078997 
PRIMCOORD
8 1
Li	      7.99937     -0.10352      8.41863         0.011163      0.026546     -0.021430
Li	      7.99479      4.01917      8.43293        -0.004466     -0.026604      0.023254
Li	      5.99889     -0.11596      6.34769        -0.001156      0.000239      0.000553
Ti	      1.99759      2.03623      4.18905        -0.005698     -0.000259      0.003046
O	      2.00018      1.94277      2.21311         0.003106     -0.104208      0.104591
O	      3.99868      2.03804      4.19365         0.002468     -0.003831     -0.008667
O	      5.99666      2.13339      6.17245        -0.009379      0.107400     -0.098154
O	      7.99719      1.95790      8.42691         0.003962      0.000717     -0.003192
