# total energy = -168.35837799 eV
 
CRYSTAL
PRIMVEC
-0.000367 2.064820 2.065524 
22.893834 -0.315953 23.032265 
6.250733 2.043503 4.151366 
PRIMCOORD
22 1
Li	     22.89744      1.90591     24.93755        -0.013523      0.014361     -0.010535
Li	     14.66454      3.92242     14.66279        -0.000931      0.004447     -0.004952
Li	     10.32149     -0.07118     10.39661         0.004437     -0.005849      0.007661
Li	     24.97934      3.68642     25.22083         0.001851     -0.002767      0.008038
Li	     27.06099      3.81941     27.15281         0.005583      0.004260     -0.000567
Ti	      8.25165      1.99319      6.26795        -0.042953      0.058741     -0.048737
Ti	      4.20523      2.00518      6.25375         0.066066      0.032385     -0.010886
Ti	      6.29652      1.98606      8.33462         0.020484     -0.001084      0.006980
Ti	     18.69145      1.86484     16.72486        -0.023329      0.006725      0.003040
Ti	     20.76566      1.85045     18.79954        -0.041778     -0.027715      0.028116
Ti	     16.72854      1.85546     18.79189         0.034576     -0.059318      0.065057
O	     24.97393      1.64095     25.20376        -0.006539     -0.052361      0.045762
O	      4.10676      1.98504      4.20836        -0.006581     -0.050741      0.057494
O	      6.20746      2.04784      6.20965        -0.054193     -0.024362      0.005681
O	      8.39828      1.94544      8.38168         0.026209     -0.000909     -0.009361
O	     10.45308      1.97898     10.41331         0.047073      0.036457     -0.057421
O	     12.48908      1.92543     12.53015         0.003671      0.003511     -0.005974
O	     14.53648      1.87727     14.64301        -0.057244     -0.050019      0.046667
O	     16.58486      1.90209     16.68205        -0.037326     -0.003441     -0.000732
O	     18.76692      1.80335     18.85113         0.052935      0.007932     -0.009398
O	     20.87436      1.87101     20.84575         0.005730      0.042011     -0.053537
O	     22.89677      1.89201     22.88810         0.015780      0.067734     -0.062394
