# total energy = -186.29659886 eV
 
CRYSTAL
PRIMVEC
-0.011726 8.385865 8.365250 
6.279055 4.171713 10.469397 
6.271748 2.073281 4.197232 
PRIMCOORD
24 1
Li	      8.34540     10.29839     14.57978         0.010133      0.018953      0.024804
Li	     10.47238     12.50206     18.95930         0.014123     -0.015991      0.016879
Li	      6.25101      8.50961     14.76275        -0.016262      0.003876      0.009997
Li	      6.21249     10.40845     16.56864         0.002126     -0.005987     -0.008664
Li	      4.22217      6.41002     10.42474         0.014282      0.009370     -0.013159
Ti	      6.17726     10.43696     12.58025        -0.066019     -0.032573      0.096646
Ti	      4.20638      8.41068     12.51314        -0.007324      0.010842     -0.060500
Ti	      6.33308      6.30934     12.57748         0.032488      0.012503     -0.003697
Ti	      2.12775      2.11514      4.11215         0.069750     -0.016276     -0.073131
Ti	      2.15889      4.25297      6.34645         0.012840      0.071092      0.052640
Ti	     10.37366      6.29723     12.55604        -0.049133      0.009216      0.022149
Ti	      8.36816      8.17287     12.62062         0.008645     -0.018473      0.001001
O	      8.35032      6.01616     12.55425         0.007547      0.011580     -0.004368
O	      4.17016      2.15168      4.19987         0.045207     -0.026041     -0.013344
O	      6.23803     10.53078     14.55358        -0.004939      0.041123     -0.078740
O	      8.38100      8.33016     14.69475        -0.031292     -0.026324      0.022089
O	      4.23121      4.18575      6.26418        -0.001716      0.017626     -0.011492
O	      6.25837      4.17443      8.39812         0.005431     -0.007731      0.008497
O	      8.34955     10.47529     16.78393         0.008584      0.006805     -0.002606
O	      4.15699      6.30249      8.32643        -0.034431     -0.036479     -0.017376
O	      6.34131      6.23279     10.50999         0.005518     -0.052278      0.020124
O	      8.29034     12.55764     18.77426        -0.017833     -0.020081     -0.026960
O	      4.19968      8.44237     10.54699         0.008127      0.027028      0.062634
O	      6.29064      8.38867     12.60104        -0.015852      0.018219     -0.023423
