# total energy = -216.13301475 eV
 
CRYSTAL
PRIMVEC
-0.153932 14.671988 14.464409 
4.149893 4.147865 8.265515 
4.148055 4.146165 4.134546 
PRIMCOORD
28 1
Li	      4.15294      4.30402      8.26603         0.017371     -0.012255     -0.004010
Li	      4.17546      6.18667      6.19995        -0.035498      0.034969      0.003864
Li	      6.06462      6.21308      8.26743         0.002908     -0.009651     -0.000912
Li	      4.21780     12.53696     16.52946        -0.002805      0.006349      0.004554
Li	      1.95674      8.41501     10.33151         0.037581     -0.035676     -0.000135
Li	      6.12956     14.44508     16.53260        -0.015127      0.010361     -0.000572
Ti	      1.93241     14.66011     16.53002        -0.019424     -0.005013      0.008814
Ti	      4.09678      8.32692      8.26669         0.004745      0.005039      0.004559
Ti	      6.25870      8.25316     10.33318        -0.100343      0.097631      0.006397
Ti	      4.02547     10.49641     14.46355         0.094899     -0.095763      0.002030
Ti	      2.03589      6.27295      8.26611        -0.007063      0.005303     -0.005687
Ti	      4.04711     14.61519     14.46714         0.022364      0.000170     -0.008278
Ti	      8.14650     20.88444     24.80005         0.075271     -0.027053     -0.023874
Ti	      1.98241     12.53760     14.46412        -0.075183      0.023520      0.015867
O	      1.91341     16.73176     16.53276         0.054948      0.019345     -0.001234
O	      3.99547     16.74060     18.59958         0.024830     -0.033696     -0.003625
O	      2.09524      4.12363      4.13292        -0.007334      0.005119      0.003972
O	      4.00487     18.82122     20.66330        -0.017868     -0.060786      0.010084
O	      2.00745      6.24041      6.20063         0.027557      0.019614     -0.007439
O	      4.04762      6.31942      8.26689        -0.056980      0.067898     -0.002000
O	      2.08542      8.28115      8.26645         0.059203     -0.061947     -0.002266
O	      4.12689      8.36181     10.33227        -0.032372     -0.028351      0.001238
O	      1.97493     10.45333     10.33197         0.015772      0.057241      0.005151
O	      4.03783     10.47653     12.39833         0.004595     -0.002064     -0.002086
O	      1.98339     12.53429     12.39912        -0.020302      0.037273      0.000070
O	      4.06553     12.54224     14.46551        -0.053950     -0.020292     -0.008602
O	      6.06376     18.82958     22.73042         0.008436     -0.034473      0.004755
O	      4.06564     14.59242     16.53234        -0.006230      0.037188     -0.000636
