# total energy = -173.77165724 eV
 
CRYSTAL
PRIMVEC
0.152050 23.048643 22.787387 
2.128323 2.084544 4.168165 
2.147449 10.479089 8.297869 
PRIMCOORD
22 1
Li	      2.12494      6.35703      8.19876         0.008798      0.012027     -0.013136
Li	      0.14328      8.33041      8.29244         0.016003     -0.003521     -0.017767
Li	      4.29821     29.37390     29.03578        -0.018217      0.004391      0.013539
Li	      2.31896     31.34799     29.12744        -0.006493     -0.012535      0.015488
Ti	      2.28908     25.24052     27.01678         0.006640      0.018779      0.018673
Ti	      2.15704     12.46564     10.30946        -0.006506     -0.009956     -0.016532
Ti	      4.28107     18.88719     18.72169         0.018105      0.057665      0.044114
Ti	      0.16291     10.53728     10.38553        -0.035527      0.015003      0.008765
Ti	      2.22723     23.05168     20.73978         0.002964     -0.000363     -0.000631
Ti	      4.27912     27.15867     26.93528         0.031653     -0.019544     -0.005771
Ti	      0.15979     18.83502     18.59643        -0.003542     -0.030970     -0.034741
O	      2.27259     25.15320     24.86876        -0.009386     -0.019444      0.000192
O	      2.16422     27.30240     26.85165         0.011270      0.015476      0.006174
O	      2.07112      6.20226      6.16959        -0.048373      0.004863     -0.010664
O	      2.21827      8.45349      8.36594         0.051524     -0.003364      0.006547
O	      2.27890     10.41405     10.47893        -0.012807     -0.040701     -0.019570
O	      2.16687     12.55639     12.45618         0.002007      0.016019     -0.002801
O	      2.16121     14.70788     14.44518        -0.001281     -0.015980     -0.014639
O	      2.18873     16.75416     16.59077        -0.014327     -0.032747     -0.013734
O	      2.22217     18.84965     18.66192        -0.011191      0.010670      0.003477
O	      2.25685     20.95310     20.73144         0.006740      0.025750      0.022789
O	      2.28536     22.99865     22.89929         0.011946      0.008482      0.010230
