# total energy = -114.71692744 eV
 
CRYSTAL
PRIMVEC
0.000366 4.224645 4.136135 
8.320177 2.166961 10.286971 
6.245135 2.131352 4.117813 
PRIMCOORD
16 1
Li	      6.21395      2.19520      4.18168         0.004305      0.049421      0.028330
Li	      6.28677      4.24112     10.30192         0.003865      0.012733     -0.002399
Li	      6.25048      4.19505      6.14439         0.004422      0.003818     -0.010836
Li	      8.30851      4.26857      8.27847        -0.011995      0.008879      0.015256
Li	      4.17058      2.13809      6.12036         0.009499     -0.020117     -0.026712
Ti	      8.29743      6.22939     10.23129        -0.053865     -0.418300     -0.045724
Ti	     10.37440      6.37746     12.44538         0.041617      0.051129      0.068700
Ti	      6.27707      2.20030      8.21997         0.053993      0.068380     -0.041191
O	     10.49345      4.34553     12.34076         0.006956      0.003148      0.007414
O	      4.20524      1.97385      4.05189        -0.058780     -0.108470     -0.082718
O	      6.33766      2.18832      6.22937        -0.001101     -0.007775      0.072164
O	      8.31249      6.39626     12.32254        -0.013930      0.048235      0.021168
O	     10.36875      6.39586     14.42135         0.022089     -0.013288     -0.036590
O	      4.08207      4.35122      6.23547         0.011354      0.033300      0.035130
O	      6.12919      4.12041      8.26975        -0.018196     -0.124346      0.004115
O	      8.32759      4.41005     10.28177        -0.000232      0.413254     -0.006108
