# total energy = -216.61071733 eV
 
CRYSTAL
PRIMVEC
-0.020776 4.151000 4.180783 
14.427179 2.058143 16.668211 
8.254906 4.150846 8.320374 
PRIMCOORD
28 1
Li	      6.14737      4.24816     10.49814        -0.005126     -0.010614     -0.026112
Li	     18.55456      8.33983     23.00316        -0.002963      0.005204     -0.003779
Li	     20.57751      8.26444     25.01503         0.005422      0.010733     -0.002144
Li	      8.18575      6.16866     10.35629        -0.002626     -0.009133      0.015421
Li	      2.13955      2.10306      4.11244        -0.006561     -0.001102      0.000045
Li	     18.49813      6.09115     20.78881         0.016150      0.000564      0.004216
Ti	      8.21998      4.06263      8.37794        -0.035828     -0.070280     -0.008766
Ti	      2.10038      4.15686      6.29226         0.056428      0.038359      0.019800
Ti	     12.28994      8.28017     16.65310        -0.009587     -0.022112     -0.055291
Ti	      8.25715      4.24190     12.53751         0.044627      0.077508     -0.048375
Ti	     12.33125      6.20225     14.57443        -0.012900     -0.011410      0.042201
Ti	     14.50646      6.18953     16.73181        -0.012969      0.002079      0.029756
Ti	      8.21158      2.02260     10.31092        -0.029277     -0.016886      0.046987
Ti	     12.36867      2.12581     14.51159        -0.028015      0.016291     -0.018647
O	     16.51123      4.10262     18.72944         0.021822     -0.029817     -0.012138
O	      4.11858      2.01102      4.24823         0.001010     -0.020722      0.060294
O	      6.12620      6.28412     10.51152        -0.015375     -0.024389     -0.015146
O	      8.34681      6.23412     12.38937         0.001985     -0.013102      0.005983
O	     10.26965      6.24543     14.58220         0.002270      0.043771      0.017633
O	     12.34078      6.17014     16.64076         0.009275      0.004377     -0.011248
O	     14.41108      6.21652     18.79152         0.003944     -0.015263     -0.005474
O	     16.46134      6.25752     20.83327         0.011995     -0.016202      0.012564
O	     18.59035      6.23932     22.86459        -0.024419      0.026557     -0.029290
O	      6.14068      4.14532      8.32671         0.024196      0.015961      0.027708
O	      8.22285      4.14498     10.43299        -0.001372      0.004037     -0.009218
O	     10.30455      4.13754     12.50394         0.008812     -0.017142     -0.011826
O	     12.37574      4.14568     14.57623        -0.025763      0.031450     -0.012083
O	     14.47572      4.10257     16.68350         0.004848      0.001284     -0.013068
