# total energy = -92.05101301 eV
 
CRYSTAL
PRIMVEC
-0.000021 2.080811 2.080634 
4.072877 -2.120203 2.120003 
3.990592 6.279289 -6.278774 
PRIMCOORD
16 1
Li	      4.13378      4.22419     -0.06584         0.002610      0.006930     -0.006681
Li	      5.94519      4.09032     -2.01206        -0.003590     -0.005818      0.005823
Li	      6.03361      6.16402     -4.08590         0.020655      0.002083     -0.002752
Li	      4.04476      2.15128      2.00759        -0.019220     -0.003534      0.003747
Mn	      7.97669      6.22119     -2.06224        -0.021948      0.004849     -0.004725
Mn	      2.10193      2.09377     -0.01590         0.015805     -0.002354      0.003376
Ni	      6.04581      2.11396     -0.03575        -0.076949     -0.101886      0.101940
Ni	      4.03295      6.20081     -2.04199         0.079752      0.103102     -0.101936
O	      6.13335      6.27284     -2.11377         0.128583     -0.005317      0.006291
O	      6.09753      4.08720      0.07166        -0.121249      0.141654     -0.140005
O	      4.02598      6.37453     -4.29598         0.017361      0.035042     -0.034994
O	      1.97943      4.06072      0.09773        -0.016325     -0.034970      0.036459
O	      3.98144      4.22764     -2.14943         0.118760     -0.140806      0.141159
O	      1.96086      2.19740      1.96140         0.009360     -0.011155      0.007587
O	      3.94515      2.04249      0.03562        -0.127186      0.005994     -0.005886
O	      4.12694     -0.16165      2.23926        -0.006419      0.006188     -0.009404
