# total energy = -205.22576918 eV
 
CRYSTAL
PRIMVEC
0.029644 4.188303 4.207977 
14.600434 2.204140 16.828499 
8.355602 4.241104 8.423813 
PRIMCOORD
28 1
Li	     14.58653      2.35680     16.87227         0.008156      0.003005     -0.000018
Li	     14.65653      8.42877     18.95420         0.011385      0.009970      0.007438
Li	     16.74723      8.35872     21.07799        -0.007279     -0.017214     -0.003084
Li	     10.42313      4.39787     14.69629         0.005336      0.022905     -0.001445
Li	     12.51268      4.32750     16.81972        -0.005795     -0.002443      0.000270
Li	     12.55226      6.21352     14.69346        -0.004963     -0.006822      0.000318
Li	      8.34746      2.28123     10.59058        -0.000513      0.018294      0.012701
Li	     18.79408      6.28636     20.97429        -0.001784     -0.015499     -0.012051
Ti	      2.20301      4.14082      6.33780        -0.018688     -0.102344     -0.036066
Ti	      4.19685      4.26137      8.31669        -0.031790      0.136376      0.064045
Ti	      8.37488      6.29253     10.62906        -0.015322     -0.138606     -0.063988
Ti	     10.36489      6.41217     12.60593         0.024484      0.082681      0.058365
Ti	      6.36349      2.06012      8.40153         0.045567     -0.164668      0.009018
Ti	     20.77503      6.50922     23.16633        -0.019725      0.136104     -0.031307
O	     16.68418      4.21352     18.97267        -0.057139      0.023578      0.017147
O	      4.09506      1.99580      4.16797        -0.006951     -0.132246     -0.003619
O	      6.30789      6.40539     10.57263         0.048926      0.008555      0.032528
O	      8.37162      6.36759     12.69431        -0.013142     -0.006042     -0.050686
O	     10.45734      6.45341     14.66942         0.012297      0.109707     -0.025169
O	     12.60136      6.45208     16.87796         0.015657      0.009928      0.004332
O	     14.56824      6.30545     18.89704        -0.004034     -0.016601     -0.007646
O	     16.71263      6.30267     21.10416        -0.020301     -0.091377      0.020612
O	     18.79804      6.38862     23.07970        -0.003831      0.008123      0.050302
O	      6.26164      4.14768      8.37388        -0.033629     -0.011673     -0.019202
O	      8.44484      4.36903     10.56972         0.010388      0.135467      0.001568
O	     10.45629      4.35536     12.59287         0.056277     -0.019733     -0.030426
O	     12.52750      4.16523     14.63938         0.005760     -0.143277     -0.001321
O	     14.61238      4.40275     16.92724         0.000652      0.163853      0.007382
