# total energy = -178.01531739 eV
 
CRYSTAL
PRIMVEC
0.039482 26.334881 27.192326 
2.094222 2.010683 4.202134 
2.121468 12.188247 10.427994 
PRIMCOORD
26 1
Li	      2.11169     12.18775     10.47968         0.003700      0.009977     -0.004023
Li	      0.14366      1.98806      2.13718         0.024383     -0.004444      0.020045
Li	      0.14998      4.00746      4.06250         0.012151      0.000067     -0.047372
Li	      0.01717     10.12920     10.45978        -0.001029     -0.001813     -0.001742
Li	      4.10001     30.44919     31.48578        -0.010866     -0.000287      0.051930
Li	      4.10641     32.46828     33.41110        -0.023769      0.005179     -0.017099
Li	      2.13808     22.26890     25.06929        -0.000037     -0.007289      0.010860
Li	      2.18607     34.44161     33.45244         0.003243     -0.002952      0.002222
Li	      2.10369     26.35013     29.29099        -0.004166      0.005361     -0.005125
Ti	      0.15523      6.09190      6.19480         0.248486      0.110007     -0.114454
Ti	      2.12986     20.26998     18.86497         0.039904      0.048992      0.152053
Ti	      2.11993     14.18629     16.68448        -0.038893     -0.037738     -0.140685
Ti	      4.09498     28.36526     29.35480        -0.252421     -0.116261      0.118895
O	      2.23947     28.42464     29.40166         0.280836      0.010715      0.011332
O	      2.14453     30.39581     31.37074        -0.000542      0.000690     -0.000509
O	      2.05051     32.36691     33.34052        -0.293434     -0.010041     -0.014604
O	      1.99900      8.09845      8.45774        -0.075664     -0.021720      0.167974
O	      2.15330      9.99849     10.58631        -0.011023     -0.179999      0.036704
O	      2.02160     12.05171     12.53846        -0.100507     -0.111257      0.008438
O	      2.02091     14.22459     14.80017        -0.039130      0.013463      0.191598
O	      2.15453     16.20569     16.88778         0.005706      0.001294      0.042902
O	      2.09519     18.25135     18.66292        -0.003430      0.000407     -0.056855
O	      2.22873     20.23273     20.74923         0.042604     -0.017483     -0.182909
O	      2.22887     22.40501     23.01155         0.084275      0.116646     -0.012729
O	      2.09658     24.45890     24.96418         0.011335      0.168818     -0.050094
O	      2.24967     26.35873     27.09222         0.098289      0.019667     -0.166751
