# total energy = -92.53881625 eV
 
CRYSTAL
PRIMVEC
-0.000009 2.071827 2.072268 
4.054180 -2.109635 2.110022 
3.959908 6.236471 -6.237750 
PRIMCOORD
16 1
Li	      2.03877      1.98224      0.08915         0.016118      0.019231     -0.021013
Li	      4.00734      4.13502      0.00803        -0.000297     -0.000671     -0.000438
Li	      5.97578      4.21473     -2.14673        -0.015734     -0.019163      0.021000
Li	      2.02729     -0.01979      2.09015        -0.000176      0.000472     -0.000164
Mn	      0.00021      2.07098      2.07122         0.001024      0.000477     -0.000298
Mn	      1.98024      4.15369     -2.08328        -0.001179     -0.001396      0.000716
Ni	      3.93060      2.05857      2.08433         0.009664     -0.063885      0.064507
Ni	      4.08393      6.21078     -2.06893        -0.009291      0.064477     -0.064701
O	      6.09721      6.18615     -2.04546         0.149472      0.018118     -0.016974
O	      6.05297      3.99637      0.14667        -0.096417     -0.018523      0.018076
O	      3.96410      6.30914     -4.24040        -0.001419      0.077993     -0.076288
O	      1.96162      4.27314     -0.13081         0.096373      0.018991     -0.020138
O	      3.90581      4.19287     -2.12293        -0.051820     -0.105880      0.106009
O	      1.91737      2.08266      2.06010        -0.151280     -0.018447      0.018181
O	      4.10875      2.00473      0.06628         0.053815      0.105825     -0.107123
O	      4.05040     -0.11212      2.18285         0.001146     -0.077620      0.078647
