# total energy = -234.15518395 eV
 
CRYSTAL
PRIMVEC
0.007385 6.196248 6.220819 
10.560084 1.993182 12.527358 
6.325559 4.107459 6.252159 
PRIMCOORD
30 1
Li	      2.20439      6.15606      8.28806        -0.013474      0.000851     -0.006274
Li	     10.56001     10.23382     16.64146        -0.003229      0.022326     -0.012094
Li	      6.24139      6.20427      8.34871         0.012834     -0.016865      0.014981
Li	      6.34030      8.08883     10.37238        -0.007410      0.019697      0.003189
Li	      2.11153      4.26339      6.26309         0.000993     -0.020103      0.005566
Li	      8.44144      4.11133     12.52872         0.006521     -0.026606      0.007193
Ti	      6.22085      4.07335      6.30950         0.046596     -0.018019      0.019689
Ti	     12.65966     10.31190     18.80670         0.003450      0.047085      0.071084
Ti	     14.74589     10.21711     20.91514         0.067185     -0.045428     -0.008336
Ti	      2.21935      2.08066      4.11250        -0.046418      0.028350     -0.011719
Ti	      4.21270      2.10229      6.19776         0.017385     -0.026186     -0.058594
Ti	     12.66668      6.12651     14.59919        -0.004285      0.006776      0.005624
Ti	     14.78770      6.04065     16.74321        -0.027065      0.046073      0.068451
Ti	      4.25834      4.13967      8.25965        -0.053480      0.024554     -0.007558
Ti	      6.34533      4.03632     10.35969         0.006163     -0.045968     -0.078024
O	     12.63012      3.99773     14.61123         0.028628      0.001284     -0.011177
O	      4.34362      8.11445     10.40277        -0.031765      0.022811     -0.015226
O	      6.36236      8.22797     12.46174         0.005158     -0.023554      0.010608
O	      8.43552      8.22740     14.57546        -0.027013      0.015712     -0.012897
O	     10.56061      8.18161     16.66203         0.006641      0.028370     -0.014244
O	     12.64516      6.11845     16.70567        -0.006225      0.028182     -0.008304
O	      4.10588      4.23142      6.23902         0.028367     -0.012056     -0.003782
O	      6.36783      4.15018      8.33610        -0.023363     -0.000770      0.007481
O	      8.37179      4.10336     10.43079        -0.008247      0.002287      0.012620
O	     10.62476      4.04490     12.51806         0.014171     -0.006858     -0.019832
O	     12.58025      8.27027     18.67887         0.031521      0.032944     -0.027449
O	      4.22394      6.17478      8.32162        -0.002717      0.002282     -0.000184
O	      6.42537      6.07605     10.48832        -0.027467     -0.038999      0.030428
O	      8.44612      6.16303     12.50883        -0.009308     -0.022019      0.017050
O	     10.57480      6.12756     14.58743         0.015851     -0.026154      0.021730
