# total energy = -173.11722545 eV
 
CRYSTAL
PRIMVEC
0.007874 4.065882 4.013376 
13.062896 0.018289 12.046464 
13.068721 4.084228 12.046405 
PRIMCOORD
24 1
Li	     13.07560      8.13527     16.05265        -0.034368     -0.007507      0.008685
Li	     14.90490      4.06820     14.05149         0.018069     -0.018558      0.006916
Li	     17.18682      4.09318     16.06073         0.054970      0.005227     -0.000595
Li	     11.31452      4.08252     14.05998        -0.044057      0.002571     -0.009222
Li	     12.97004      6.12157     14.05976        -0.007289     -0.001712     -0.006614
Li	      6.57774      2.04331      8.02808         0.025041      0.004676     -0.001667
Li	      8.77180      2.04493     10.03794        -0.025407     -0.000857     -0.005002
Ti	     19.55469      4.09538     18.06889        -0.607247      0.004687     -0.015179
Ti	      8.82620      4.07781     12.04118         0.602832     -0.000818     -0.017818
Ti	     14.96920      6.02871     16.06296        -0.493478     -0.113727      0.007969
Ti	      4.43921      2.04841      6.02512         0.268056      0.013113     -0.012065
Ti	     23.90374      6.13016     24.15598        -0.151446     -0.006506     -0.003197
O	     15.43974      6.14751     18.06755         0.018424     -0.011363     -0.002789
O	     17.42534      6.13503     20.07229        -0.047134      0.007164     -0.001812
O	      6.52032      2.04342      6.01948         0.048041      0.000968      0.014114
O	      8.77750      6.11081     12.03738        -0.009947     -0.001115      0.021389
O	     10.82984      2.04770     10.00774         0.014163      0.000221     -0.090644
O	     13.15744      6.10913     16.06353         0.444719     -0.016908     -0.007765
O	     15.29051      4.15206     16.05889        -0.059148      0.133314     -0.003147
O	     17.52327      4.09906     18.06254        -0.014953      0.007547      0.022086
O	     19.71314      4.09455     20.07314         0.287230      0.018553     -0.011329
O	      8.62084      4.07778     10.03043        -0.253897     -0.000501     -0.019787
O	     10.84315      4.07918     12.00666        -0.054606     -0.007678      0.132717
O	     13.08994      4.08548     14.04940         0.021433     -0.010794     -0.005247
