# total energy = -174.96878608 eV
 
CRYSTAL
PRIMVEC
-0.000620 2.082407 2.080270 
8.353167 -0.117911 8.436253 
12.452861 6.168941 6.315206 
PRIMCOORD
24 1
Li	     12.49133      6.21658     10.43100         0.009977      0.013351     -0.014843
Li	      2.04894      0.00127      2.07998         0.004314     -0.002170      0.005128
Li	      4.03346      2.00554      2.15885         0.018075     -0.012082      0.011608
Li	      8.54601      6.14288      6.34338         0.007797     -0.017989      0.016539
Li	     18.73964      8.13421     14.75361        -0.008007     -0.013000      0.007519
Li	      8.35883      4.10997      8.37546         0.010445      0.027394     -0.025386
Li	     10.29785      4.07637      6.32683        -0.016553      0.013050     -0.009694
Ti	     12.32291      6.14735      6.33902        -0.393427     -0.051199      0.049299
Ti	     10.55371      4.08134     10.48272         0.045887      0.078225     -0.062056
Ti	     14.48084      3.99925     10.56372        -0.069053     -0.046923      0.044810
Ti	     16.57697      6.08397     10.56136         0.016263      0.006477     -0.001085
Ti	      6.36866      4.15085      6.25466         0.336394      0.043615     -0.044920
O	     10.39503      2.03156     10.45111         0.075798      0.046414     -0.020943
O	     12.48087      4.01866     10.54568        -0.106124      0.009310     -0.012744
O	     14.55045      6.07828     10.56908         0.023609     -0.015470     -0.020935
O	      4.19474      1.96696      4.27928        -0.089125     -0.062691      0.008555
O	      6.16639      4.12037      4.20405        -0.004370     -0.001384      0.023432
O	     16.57947      6.12334     12.60171        -0.003017      0.068374     -0.029745
O	      6.16833      2.08871      6.23421        -0.005702      0.011171      0.019576
O	      8.20354      4.11062      6.29445        -0.330376     -0.004036      0.002475
O	     18.84770      6.08083     14.72416         0.420802      0.006366     -0.003435
O	      8.44663      1.90190      8.50029        -0.018928     -0.034468      0.019644
O	     10.42180      3.98077      8.50540         0.085657     -0.129204      0.093819
O	     12.49458      6.24805      8.31869        -0.010334      0.066869     -0.056618
