# total energy = -246.67858567 eV
 
CRYSTAL
PRIMVEC
-0.015763 8.366248 8.292107 
8.328072 2.030954 10.410077 
4.157092 4.174133 4.147131 
PRIMCOORD
32 1
Li	      8.22139     12.49678     16.75447        -0.004097     -0.015716      0.019104
Li	     10.28780     12.57745     18.76785        -0.005727      0.013697      0.009343
Li	      8.38143      4.32103     12.38137        -0.005073      0.015715      0.009863
Li	      8.38857      6.04462     10.46140        -0.002567     -0.037769     -0.004849
Li	     10.30282      6.22960     12.47772         0.015133      0.011402     -0.002772
Li	      8.38590      6.28269     14.38914         0.005223      0.001009      0.003148
Li	      6.33380      4.05381     10.33538        -0.011163     -0.007690      0.004690
Ti	      8.33069      2.12261     10.49852        -0.025004      0.305729      0.004673
Ti	      2.07278      8.35775     10.34797         0.012016     -0.008124      0.001439
Ti	      6.12981      6.23792      8.38996        -0.138458     -0.012211      0.063819
Ti	      2.07337      4.19664      6.24021        -0.011994     -0.026760      0.002659
Ti	      4.12037      4.22236      8.32357         0.021717     -0.024226      0.028916
Ti	      4.13136     10.36457     10.28819        -0.014544     -0.021052     -0.108823
Ti	      6.34916     10.31359     12.47028         0.092197     -0.052368      0.013391
Ti	      4.16046      6.25422     10.35028         0.005804     -0.003469     -0.007535
Ti	      6.27258      6.30267     12.41727         0.077715      0.049865     -0.074586
O	      2.09570      2.04395      2.13202         0.045256     -0.010113      0.008919
O	      4.15321     10.48436     12.37016         0.002405      0.010695     -0.007123
O	      6.21248     10.44798     14.51588         0.023285      0.033014     -0.019746
O	      8.32468     10.33997     16.65408        -0.008928      0.016980      0.031065
O	      2.10890      4.13068      4.15959         0.043549     -0.027777     -0.011929
O	      4.14884      4.16137      6.26395         0.009915     -0.008875     -0.034244
O	      6.23999      4.19827      8.26676        -0.009449      0.023942     -0.030642
O	      8.33058      3.98078     10.42441         0.003880     -0.268989      0.032976
O	     10.39500      8.35715     16.63295        -0.025528      0.048699     -0.000080
O	      4.16667      6.35655      8.21592         0.010518      0.001397      0.006157
O	      6.30132      6.21496     10.40194        -0.002686     -0.009022     -0.006849
O	      8.25579      6.30919     12.44481        -0.081240      0.030963     -0.008715
O	      2.07753      8.29482      8.27112        -0.007545      0.009790     -0.005188
O	      4.15035      8.31174     10.37471        -0.011484      0.009471      0.006203
O	      6.14586      8.30091     12.53205         0.003297     -0.028148      0.016396
O	      8.31177      8.32391     14.55194        -0.006422     -0.020060      0.060321
