# total energy = -223.33698425 eV
 
CRYSTAL
PRIMVEC
-0.016755 6.412488 6.154717 
10.270648 0.023219 10.205866 
6.158393 2.132519 4.091134 
PRIMCOORD
30 1
Li	     10.21268      0.07371     10.16578        -0.005981     -0.030285      0.007388
Li	      4.07694      0.06889      4.08195         0.001558      0.004185     -0.004923
Li	     14.34827      2.15661     12.38082         0.003707      0.008511     -0.002924
Li	      6.20871      4.18350      6.19669        -0.001135     -0.025826     -0.004661
Li	      2.07202      2.14572      3.95688        -0.011238      0.005229      0.005032
Li	     12.33091      4.23202     12.26801         0.008692     -0.001566      0.005337
Li	      2.05682      4.26549      6.11834        -0.004264      0.008133      0.002130
Li	      8.22165      4.33659     12.28728        -0.002990      0.018451     -0.016793
Ti	      8.20525      8.50142     12.31070        -0.014722      0.050447      0.024726
Ti	      6.15956      6.43797     12.27418         0.012333     -0.035132      0.045544
Ti	     10.23883      4.20293     10.21996        -0.001665      0.030254     -0.069049
Ti	      8.21518      2.22244     10.17135         0.011492     -0.048971     -0.048106
Ti	      6.14079      6.37141      8.21537        -0.022097     -0.022639      0.023867
Ti	      4.04856      4.34733      8.15712        -0.053769     -0.052129      0.002015
Ti	      6.20821      4.28409     10.25199         0.091933      0.055518      0.029353
O	     12.31791      2.02666     12.17819        -0.017400      0.011204     -0.071581
O	      4.09928      2.26837      4.19888        -0.004745     -0.034515      0.084792
O	      6.15837      2.08211      6.15114        -0.013643     -0.011064      0.011563
O	      8.21973      2.14246      8.18740        -0.003053      0.003399      0.008302
O	     10.27884      2.16350     10.20265         0.014904      0.025074     -0.023963
O	     12.29438      4.33327     14.30031        -0.064607     -0.005119      0.000142
O	      4.10758      4.23457      6.13304        -0.012905     -0.008165      0.063702
O	      6.12350      4.30916      8.20816         0.003784      0.074414      0.001217
O	      8.20432      4.29994     10.24572        -0.010439     -0.038705      0.001254
O	     10.25554      4.36064     12.25592        -0.011038     -0.018071     -0.009306
O	     12.31170      6.43643     16.39553         0.020322      0.034111     -0.019096
O	      4.10902      6.40448      8.20938         0.032740     -0.023604     -0.011031
O	      6.13381      6.39629     10.22849         0.016223      0.033473      0.004005
O	      8.18378      6.41425     12.27006         0.021715      0.038944     -0.012225
O	     10.30527      6.37477     14.26085         0.016288     -0.045557     -0.026711
