# total energy = -198.09244473 eV
 
CRYSTAL
PRIMVEC
-0.000010 2.082223 2.081711 
28.578234 -0.603329 29.748524 
20.399883 1.724203 19.094150 
PRIMCOORD
28 1
Li	     20.19943      1.79028     19.02444         0.039136      0.016659     -0.013915
Li	     24.46853      1.56200     23.42034         0.012489     -0.000638     -0.000988
Li	      6.19048      2.01287      8.39477         0.005743      0.013768     -0.013098
Li	     30.54264      1.44704     29.77972        -0.006401     -0.016052      0.015109
Li	     12.26401      1.89783     14.75414        -0.015827      0.001615      0.000233
Li	     16.53308      1.67059     19.14976        -0.035004     -0.017752      0.014595
Li	     18.35095     -0.13626     18.87174         0.001259     -0.034622      0.036803
Li	     22.45555      1.60655     25.45474        -0.000626      0.001037     -0.000276
Li	     18.38143      3.59713     19.30224         0.001206      0.032897     -0.036091
Ti	      2.12214      2.04916      4.19433         0.076214      0.087516     -0.083871
Ti	      8.16638      1.90893     10.58056         0.003294     -0.003116      0.003662
Ti	     34.61073      1.41083     33.98061        -0.081272     -0.082627      0.077631
Ti	     40.63187      1.26144     40.37409        -0.313599     -0.048214      0.047132
Ti	     24.67911      1.59510     27.54877         0.317419      0.047440     -0.046733
O	     30.60216      1.33461     31.97273         0.015990     -0.098526      0.098721
O	     32.65576      1.42847     33.96157        -0.011407     -0.001348      0.000308
O	     34.70923      1.52204     35.95024        -0.018054      0.090529     -0.089049
O	     36.73097      1.19955     38.35345         0.034505     -0.067859      0.069357
O	     10.20969      1.83196     10.65807         0.252192      0.008903     -0.009290
O	     12.25686      1.96084     12.61086        -0.017976      0.051774     -0.051187
O	     14.30658      1.72630     14.92711         0.000147     -0.012710      0.012319
O	     16.25170      1.91485     16.82107        -0.023248      0.066417     -0.067177
O	     18.36633      1.73031     19.08690         0.001598     -0.000424      0.001595
O	     20.48132      1.54520     21.35340         0.030224     -0.065796      0.064904
O	     22.42642      1.73348     23.24758         0.000544      0.019331     -0.020225
O	     24.47591      1.49845     25.56366         0.016553     -0.044252      0.046354
O	     26.52333      1.62786     27.51627        -0.252356     -0.009188      0.009480
O	     28.58038      1.65739     29.56910        -0.032744      0.065239     -0.066301
