# total energy = -89.60203264 eV
 
CRYSTAL
PRIMVEC
0.000373 2.068942 2.081436 
4.271816 -2.130199 2.144514 
4.252357 6.373186 -6.413860 
PRIMCOORD
16 1
Li	      2.26441      2.25604     -0.20736         0.010738      0.004247     -0.003960
Li	      4.26466      4.19017     -0.05310         0.000524      0.000937     -0.000193
Li	      6.26200      4.05667     -1.98111        -0.012577     -0.003275      0.003693
Li	      2.12753      4.22096     -2.16585         0.000617      0.000056      0.000390
Mn	      4.27209     -2.12925      2.14442         0.001593     -0.000981      0.000093
Mn	      2.13630     -0.02982      2.11302         0.000139      0.003906     -0.004819
Ni	      4.37623      2.16672      1.96202        -0.104045     -0.083923      0.093396
Ni	      4.14955      4.14586     -4.14984         0.102870      0.083009     -0.092319
O	      6.29414      6.45280     -2.33525         0.028779      0.001202     -0.005010
O	      6.53926      2.12647     -2.13207        -0.186131      0.003445     -0.009902
O	      4.23168      6.45492     -4.42999        -0.033005      0.013484     -0.009693
O	      1.98650      4.18610     -0.05593         0.185443     -0.003675      0.009958
O	      4.31001      4.29269     -2.22172        -0.008476     -0.121649      0.110492
O	      2.23101     -0.13890      0.14709        -0.027502     -0.006107      0.008092
O	      4.21621      2.01987      0.03377         0.008450      0.121997     -0.109602
O	      4.29334     -0.14106      2.24187         0.032584     -0.012671      0.009382
