# total energy = -229.09263847 eV
 
CRYSTAL
PRIMVEC
0.000066 4.065081 4.061236 
8.648178 -0.001331 8.123931 
8.647978 4.064996 4.061445 
PRIMCOORD
32 1
Li	      8.65486      4.06260     12.18284         0.001442      0.000684      0.005245
Li	     10.76387      4.06219      6.11059        -0.003218      0.004558     -0.013505
Li	     13.00042      6.09555     14.21464        -0.019335     -0.000996      0.003417
Li	      4.34110      4.06433      8.12292        -0.022147     -0.002207      0.001209
Li	      6.38958      2.02210      4.06348        -0.019224     -0.002069     -0.002114
Li	      8.64394      2.03177      6.09177         0.002672     -0.002520      0.000513
Li	      8.64513      6.09492      6.09139         0.001056      0.002323     -0.002388
Li	     10.76119      4.06360     10.13592        -0.002148     -0.001358      0.018942
Li	      4.35189      2.03097      6.09284        -0.018305     -0.004550     -0.001153
Li	     15.03654      6.10543     12.18660        -0.021678      0.000578     -0.004281
Ti	     10.86384      6.08219     12.18773         0.020947     -0.030494      0.002081
Ti	     15.13797      4.06435     10.17813        -0.025664      0.000837      0.033369
Ti	      2.21487      2.04492      4.06374         0.024513      0.021540      0.001309
Ti	      4.24120      4.06308      4.06202         0.044365      0.001546     -0.006043
Ti	      6.48994      4.06557      6.07111        -0.016454      0.003143     -0.040586
Ti	      8.66359      4.06294      8.12313        -0.023188     -0.001485     -0.001469
O	     10.83754      2.03014     10.15154         0.001298     -0.004863      0.005801
O	     13.17016      4.06163     10.24153         0.081123      0.010433      0.076835
O	      4.19286      2.04278      4.05918        -0.074905      0.051724      0.010075
O	      6.41493      4.06389      4.06250         0.009060      0.002987     -0.004437
O	      6.48735      2.03031      6.09393         0.010930     -0.006757     -0.003647
O	      8.46160      4.06284      6.15888        -0.049097      0.002151      0.078899
O	      8.85330      2.12026      8.12155         0.025020      0.111321      0.005316
O	     10.71130      4.06330      8.12308        -0.036097      0.001432     -0.000636
O	      2.20464      4.06366      4.05995         0.053618      0.002696      0.003001
O	     12.84240      6.08240     12.18388        -0.082537     -0.049228     -0.000669
O	      4.51955      4.06240      6.00432         0.088839      0.004529     -0.076283
O	      6.48690      6.09504      6.09363         0.016069      0.001543     -0.007531
O	      6.59525      4.06351      8.12432         0.037927     -0.000308     -0.005896
O	      8.85201      6.00566      8.12111         0.034223     -0.110609      0.005743
O	      8.46280      4.06209     10.08600        -0.044088      0.000985     -0.075002
O	     10.83752      6.09661     10.15176         0.004984     -0.007568     -0.006114
