# total energy = -229.59060574 eV
 
CRYSTAL
PRIMVEC
0.029393 8.263999 8.313267 
4.190402 6.206118 10.397853 
6.253489 6.202137 4.174010 
PRIMCOORD
32 1
Li	      6.31708     14.47094     12.54379         0.000507     -0.000762      0.009095
Li	      8.23147     14.39235     14.53541        -0.046150     -0.005041     -0.004644
Li	      4.23810     10.36178     10.39764         0.001066     -0.002677      0.000143
Li	      4.19830      8.25640     12.40438         0.002164     -0.010518     -0.018021
Li	      6.29903     10.36947     12.49407         0.004687      0.004189      0.006060
Li	      4.27065     10.34861     14.54001         0.002705      0.005669     -0.007219
Li	      6.30288     12.40629     14.53325         0.010496      0.009260     -0.008837
Li	      8.34298     10.35245     10.46386         0.002361     -0.002971      0.009610
Li	      6.30767     14.45082     16.60271        -0.002842     -0.007670     -0.009883
Li	      8.25192     12.41639     12.54274        -0.005833      0.014965      0.012352
Ti	      6.24672      8.38798     10.50108        -0.154054      0.045316      0.111694
Ti	      2.15759     10.33154     12.39242         0.161176      0.049226     -0.052981
Ti	      4.22871     12.45934     12.46862         0.067332      0.115966     -0.076304
Ti	      4.25668      6.20156      6.26451         0.371889      0.059643     -0.054020
Ti	      4.31092     12.42112     16.60533         0.084443      0.015048      0.037401
Ti	      4.15317      8.18910      8.28210        -0.186567     -0.049357      0.075859
O	      2.08083     10.34407     10.37490         0.018026      0.023691     -0.043287
O	      8.51593     10.34759     12.60049         0.042611     -0.019623      0.097865
O	      4.04268     10.38299     12.47177        -0.198003      0.043830     -0.019428
O	      6.17237     12.37880     12.41736        -0.116438      0.001939     -0.072844
O	      2.18493      4.00981      4.12016         0.077636     -0.124729      0.000888
O	      8.27220     12.33466     14.62535         0.035349     -0.183660      0.042936
O	      4.19841     12.40019     14.54374        -0.001361      0.003304      0.019427
O	      6.11854     14.48431     14.54996        -0.398775      0.000957      0.040985
O	      2.03260      6.20428      6.27843        -0.125230      0.005081     -0.005853
O	      8.37007     14.48834     16.61819        -0.010660      0.045419      0.043901
O	      4.18214      6.19579      8.34809         0.021837      0.026901     -0.051083
O	      6.27311      8.28897      8.40753         0.004923     -0.016105      0.036239
O	      2.26233      8.35190      8.36448         0.213326      0.038567     -0.036350
O	      8.28892     16.47874     18.62455        -0.068487     -0.015584     -0.038004
O	      4.36373      8.26721     10.29425         0.211395      0.033233     -0.042354
O	      6.32060     10.32182     10.42625        -0.019527     -0.103507     -0.003344
