# total energy = -227.96918884 eV
 
CRYSTAL
PRIMVEC
-0.000151 2.083223 2.082314 
33.288666 -0.584752 33.899609 
16.630482 1.849974 14.808328 
PRIMCOORD
32 1
Li	     33.30178      1.74314     35.74112         0.005106     -0.010130      0.008813
Li	     20.78310      1.77271     19.05029        -0.008980     -0.004043      0.005237
Li	      8.32226     -0.14335      8.47542        -0.003895      0.000597     -0.004071
Li	     12.48881      1.86587     14.78799         0.010715      0.006713     -0.001616
Li	     33.26096      1.31495     32.00289        -0.006022      0.010167     -0.009676
Li	     35.12282      1.55634     33.84416         0.045800      0.018420     -0.019849
Li	     23.00969      1.63868     25.42711         0.044222     -0.011526      0.016002
Li	     41.59773      1.41147     40.23403        -0.003225     -0.001401      0.002991
Li	     43.55388      1.41869     42.31210        -0.047060      0.015282     -0.017637
Li	     31.44030      1.50171     33.89915        -0.047702     -0.020336      0.022249
Ti	     18.53143      1.77287     16.97355        -0.204182     -0.091571      0.089453
Ti	      6.39307      2.01356      8.39915         0.477130      0.038475     -0.032508
Ti	     26.87810      1.63074     25.44165        -0.421378     -0.061602      0.057841
Ti	     14.74122      1.86919     16.87022         0.194760      0.103227     -0.102294
Ti	     37.40694      1.47541     36.00518         0.000908      0.020261     -0.020203
Ti	     29.15455      1.58264     31.73803        -0.000532     -0.016645      0.014296
O	     35.43363      1.40032     36.08539         0.096382     -0.014756      0.008583
O	     37.40130      1.54144     38.02204        -0.019554      0.026866     -0.022806
O	     39.49767      1.33057     40.31475         0.000902     -0.064822      0.065981
O	      8.21103      1.95880      8.45550        -0.467326      0.011963     -0.013709
O	     10.47171      1.84992     10.64615         0.065746     -0.004569      0.004962
O	     12.43545      1.99388     12.58558        -0.002379      0.036396     -0.036338
O	     14.50669      1.72695     14.93347         0.040309     -0.076883      0.082589
O	     16.63612      1.82087     16.92183         0.003900      0.000496      0.000023
O	     18.76638      1.91557     18.90982        -0.036427      0.070417     -0.076964
O	     20.83607      1.64863     21.25801         0.010703     -0.025443      0.025351
O	     22.80067      1.79429     23.19549        -0.062139      0.003619     -0.003397
O	     25.06260      1.68517     25.38584         0.422845     -0.011681      0.012739
O	     27.06339      1.72754     27.42740        -0.008419      0.079665     -0.083286
O	     29.16040      1.51749     29.71993         0.024217     -0.040231      0.036616
O	     31.12811      1.65732     31.65801        -0.101802      0.013788     -0.008586
O	     33.28153      1.52916     33.87194        -0.002624     -0.000712     -0.000787
