# total energy = -90.69087976 eV
 
CRYSTAL
PRIMVEC
0.002160 2.080360 2.112345 
4.039008 -2.096561 2.133112 
4.128933 6.387803 -6.481240 
PRIMCOORD
16 1
Li	      2.10819      2.20381     -0.16614        -0.000342     -0.000532     -0.008348
Li	      4.10190      4.37570     -0.23489        -0.003934     -0.013365      0.001013
Li	      6.05650      4.21747     -2.12034        -0.008858     -0.007866      0.011845
Li	      6.08770      2.16342     -0.07432         0.007435     -0.014393      0.007435
Mn	      4.16553      6.35658     -6.42719        -0.032583      0.016836     -0.016316
Mn	      4.13171      2.12898      2.06519         0.114437      0.018677     -0.012837
Ni	      6.16534      6.34536     -4.31916         0.001493     -0.000213      0.006421
Ni	      4.00904      4.21162     -4.25182         0.078014      0.037384     -0.026182
O	      6.28732      6.39598     -2.27735         0.039781     -0.092379      0.083143
O	      6.11323      2.18716     -2.18900        -0.123335      0.000338      0.005500
O	      4.13936      6.43233     -4.31589        -0.130141      0.051563     -0.026530
O	      1.90006      4.18377     -0.04062        -0.113392     -0.001604     -0.008304
O	      4.09112      4.33214     -2.29314         0.009570     -0.109616      0.105742
O	      2.01763     -0.06452      0.08874         0.033648      0.120012     -0.096795
O	      4.02223      1.93964      0.15539         0.014233     -0.040101      0.038142
O	      4.09085     -0.00224      2.03181         0.113975      0.035261     -0.063930
