# total energy = -95.84974929 eV
 
CRYSTAL
PRIMVEC
0.059977 4.238027 4.239209 
6.356070 2.222363 8.466264 
4.217023 2.149035 2.150230 
PRIMCOORD
12 1
Li	      4.24494      6.33725      6.34226         0.008827      0.016421      0.013208
Li	      6.32168      4.26308      6.34943         0.014956     -0.006434      0.001149
Ti	      2.16826      4.31965      6.26495        -0.027775      0.010407     -0.070007
Ti	      4.38794      4.39975      8.56669         0.042120      0.018875      0.072115
Ti	      4.26372      4.18342      4.29341        -0.022983     -0.071718     -0.009368
Ti	      8.39394      4.34606      8.53541        -0.041071     -0.037550     -0.024756
O	      8.52180      4.42368     10.64538         0.014411      0.023293      0.000450
O	      4.18902      2.17751      4.23480        -0.011333      0.017651     -0.013272
O	      6.37981      6.38284     10.54637         0.021977     -0.003436     -0.014764
O	      2.11143      4.22562      4.26417        -0.026263     -0.000508      0.009309
O	      4.28834      4.31700      6.43021         0.013997      0.013026      0.036964
O	      6.39849      4.30656      8.46440         0.013136      0.019972     -0.001030
