# total energy = -125.98957097 eV
 
CRYSTAL
PRIMVEC
-0.046720 4.160337 4.152915 
4.117285 2.085279 6.176738 
6.268332 4.168447 1.997287 
PRIMCOORD
16 1
Li	      0.05188      4.15031      4.14343        -0.012436      0.009374     -0.004966
Li	      6.21954      4.16859      6.15219         0.004669     -0.002900      0.001136
Li	      8.21976      6.26037      6.14392         0.015255     -0.010475      0.009204
Ti	      8.32610      8.30153      8.22792        -0.003440     -0.017414      0.030369
Ti	      4.15426      6.32262      6.23854        -0.023948      0.005154     -0.043582
Ti	      4.06659      4.19995      8.23121        -0.005651      0.017370     -0.029043
Ti	      6.18948      6.24686      8.22949         0.007137      0.003803     -0.007730
Ti	      4.12144      4.08540      4.04937         0.014668     -0.008823      0.043540
O	      2.08698      2.06428      2.06300         0.010629      0.008108     -0.004086
O	      8.34857      6.28677      8.13146         0.025127      0.000999      0.022339
O	      4.03389      6.21162      8.33491        -0.018821     -0.002169     -0.025004
O	      6.23378      4.18582      4.06811        -0.011701     -0.003628      0.000471
O	      2.06672      4.17139      4.12199        -0.011919     -0.011930     -0.007062
O	      8.23102      8.31104     10.30301        -0.035477      0.021698      0.002715
O	      4.16199      4.18357      6.15692         0.031284     -0.022514      0.001091
O	      6.20665      6.23989      6.16145         0.014623      0.013346      0.010607
