# total energy = -125.67500016 eV
 
CRYSTAL
PRIMVEC
0.000094 4.188076 4.190555 
8.316307 0.006210 8.375056 
4.158591 4.188515 4.190210 
PRIMCOORD
16 1
Li	     10.39356      8.27245     14.64529         0.000018     -0.011984     -0.001372
Li	      4.15751      6.37977      6.38293        -0.000137     -0.001023     -0.000013
Li	      2.07700      2.08123      4.08114         0.000781     -0.000528     -0.007892
Ti	      8.31361      4.18013     12.54386         0.004963      0.007576      0.013003
Ti	      6.23744      4.17894      6.29862        -0.004436      0.031806     -0.017662
Ti	      8.31367      8.33953     12.52501        -0.002190      0.003654     -0.007477
Ti	      8.31417      6.33468     10.52640         0.005101      0.031491      0.018018
Ti	      6.23754      2.10930      8.36469        -0.002651     -0.021838      0.025636
O	      2.07888      6.18981      6.19372        -0.001392     -0.031898     -0.027223
O	      4.15610      2.10433      4.22841        -0.001394     -0.010101     -0.028195
O	      6.23471      6.25283     10.44050         0.001150      0.022600      0.024674
O	      8.31677      2.06478      8.48493         0.000998     -0.013551      0.056268
O	      2.07700      4.16813      4.17217         0.002186      0.013324      0.008013
O	      4.15784      4.29508      6.24461        -0.003628      0.053065     -0.006216
O	      6.23487      4.22790      8.41586         0.000885     -0.040774     -0.042533
O	      8.31400      4.23096     10.47906        -0.000253     -0.031818     -0.007027
