# total energy = -100.53001040 eV
 
CRYSTAL
PRIMVEC
0.000574 2.094205 2.094638 
2.094618 0.000692 2.094519 
15.261983 15.258036 -0.593822 
PRIMCOORD
14 1
Li	      2.13732      2.13564      4.14575         0.010807      0.011961     -0.009856
Li	      4.31861      4.31761     -0.12411        -0.014358     -0.014910      0.012076
Li	     11.07004     11.06829      3.59908         0.020458      0.022300     -0.026248
Li	     10.64660     10.64633     -0.16982        -0.016707     -0.016366      0.023479
Ti	      2.18046      2.17818     -0.08302        -0.012102      0.006166     -0.008203
Ti	      6.45692      6.45489     -0.16651         0.069428      0.070743     -0.079981
Ti	     15.26266     15.25773      3.59654        -0.076794     -0.077420      0.058292
O	      2.20272      2.20220      1.98739        -0.052308     -0.062770      0.057798
O	      4.25047      4.25007      2.03420         0.069990      0.060489     -0.054144
O	      6.46661      6.46487      1.91705         0.027333      0.025759     -0.030145
O	      8.43811      8.43640      2.03928        -0.104784     -0.104208      0.115981
O	     10.85910     10.85806      1.71367        -0.004023     -0.005390      0.005021
O	     13.27888     13.27385      1.38387         0.108805      0.108269     -0.090253
O	     15.25090     15.24596      1.51003        -0.025744     -0.024622      0.026184
