# total energy = -208.66947849 eV
 
CRYSTAL
PRIMVEC
-0.060268 26.977522 27.873786 
2.070980 2.075957 4.283151 
2.077632 6.231491 4.278167 
PRIMCOORD
26 1
Li	      4.04229     12.46176     12.89805         0.016156     -0.001181      0.032291
Li	      2.11543      8.31044     10.52355        -0.008421      0.003768      0.013583
Li	      2.01025     22.82304     21.63942         0.006116     -0.001304      0.004186
Li	      0.03403     18.67034     19.32192        -0.018178     -0.000968     -0.008315
Ti	      2.03071     29.04891     32.05277        -0.020517      0.008040      0.009494
Ti	      2.05902      8.30874      6.43973         0.034934      0.004481     -0.036652
Ti	      4.05031     16.61855     17.09705        -0.001640      0.008152      0.075130
Ti	      2.08477     16.63724     15.12875        -0.038592     -0.010452     -0.061609
Ti	      2.00118     14.49748     17.01026         0.034658      0.005815      0.034602
Ti	      2.10395     20.74535     19.33852         0.028647     -0.011661     -0.051662
Ti	      2.04835     26.98013     25.77271        -0.007852     -0.005803      0.046481
Ti	      1.95325     24.89929     27.74229         0.030360      0.002169      0.050789
Ti	      2.11000     31.14193     30.15220        -0.019522      0.005801     -0.053080
O	      2.01214     29.06343     29.87968        -0.006230      0.004608     -0.013275
O	      1.91529      4.15033      4.34893        -0.035183     -0.005257      0.000734
O	      2.07209      6.23108      6.35171        -0.030690     -0.002252     -0.007164
O	      2.05131      8.30776      8.46746        -0.005496      0.000846     -0.025182
O	      2.08914     10.38846     10.76327         0.008594      0.006579      0.029042
O	      2.04968     12.46517     12.94575         0.011537      0.008236     -0.008026
O	      2.18725     14.55549     14.91279         0.032628      0.007459      0.042086
O	      1.90701     16.57963     17.23201        -0.010647     -0.005879     -0.038182
O	      2.05623     18.66834     19.18290        -0.021589     -0.010500     -0.006404
O	      2.01007     20.74536     21.39789        -0.021101     -0.002277     -0.035680
O	      2.02843     22.82308     23.68448        -0.009785     -0.004274      0.005582
O	      2.13264     24.90241     25.65875         0.005872     -0.000651     -0.000265
O	      2.09099     26.97717     27.97414         0.045939     -0.003494      0.001493
