# total energy = -239.02852870 eV
 
CRYSTAL
PRIMVEC
0.020185 6.342858 6.389404 
10.530886 2.208553 12.719589 
6.322446 6.363162 8.519589 
PRIMCOORD
30 1
Li	     10.59311      4.29042     14.78856        -0.012769      0.018033     -0.001436
Li	      6.42404      2.26395      8.66549         0.001711     -0.000605      0.024693
Li	      8.24100      2.26922     10.45303        -0.003083      0.000496      0.001099
Li	      8.35629     10.66843     14.97272         0.004797     -0.013553     -0.000952
Li	      6.38801      4.22533     10.57658        -0.000686     -0.004396      0.000427
Ti	      6.25792      6.36599      8.53236        -0.017996      0.014256     -0.079450
Ti	      2.18910      6.39770      8.49087         0.060146      0.046248     -0.077794
Ti	      4.28132      6.36435     10.40432        -0.029430      0.012478      0.060199
Ti	     12.58088     12.74647     21.39121         0.002906     -0.026389     -0.004292
Ti	     14.71809     12.73605     23.44641        -0.078180     -0.010655      0.016251
Ti	      2.12147      2.22185      4.21560         0.034073      0.018580      0.013688
Ti	     10.59057      8.43932     15.00393        -0.014196     -0.012410     -0.048876
Ti	     10.64520      6.45844     16.90449         0.027330     -0.034504      0.069678
Ti	      4.22570      4.29960      8.47786         0.013066      0.065046     -0.011176
Ti	     14.70137     10.54276     21.31600        -0.015422     -0.045739     -0.031308
O	     12.60376     10.68378     21.18305        -0.006519     -0.019855      0.031338
O	      4.29321      8.42643     10.73460         0.071748      0.007463      0.010042
O	      6.35559      8.50069     12.78118        -0.010280      0.015522      0.002496
O	      8.52025      8.45816     14.86086        -0.024507     -0.035361      0.017908
O	     10.57578      8.55308     17.04153         0.016880      0.001156     -0.023222
O	     12.68009      6.55061     17.11499        -0.023071     -0.021809     -0.043159
O	      4.24883      4.22506      6.39077         0.032128     -0.023173     -0.004027
O	      6.29348      4.28773      8.46827        -0.036382      0.058759     -0.017320
O	      8.45503      4.32779     10.68185         0.036552      0.024325     -0.013826
O	     10.52343     10.66695     19.09419         0.021493      0.000964     -0.016675
O	     12.54504      8.57802     19.22102        -0.050903     -0.009272      0.071522
O	      4.21509      6.32584      8.24181        -0.019498     -0.006250      0.084960
O	      6.34520      6.39176     10.64107        -0.002709     -0.022858     -0.006412
O	      8.43598      6.36632     12.78190         0.004435     -0.006954     -0.027222
O	     10.50232      6.31602     14.75436         0.018368      0.010459      0.002846
