# total energy = -238.77535200 eV
 
CRYSTAL
PRIMVEC
-0.043629 31.846516 31.238713 
2.062057 6.358133 8.338506 
2.057064 10.622030 8.321052 
PRIMCOORD
30 1
Li	      4.05668     16.95309     16.62644         0.013690     -0.004977     -0.007850
Li	      2.04014     21.23528     18.76000        -0.008098      0.003591      0.003285
Li	      1.96677     19.15825     20.61154         0.007142      0.003295      0.005763
Li	      2.10903     29.68000     27.16484         0.028498      0.011518     -0.010742
Li	      0.03490     29.69010     29.19016        -0.015686     -0.009054     -0.035897
Ti	      2.10350     12.67636     10.41814         0.008431      0.023306      0.028547
Ti	      2.00501     10.76371     12.58401        -0.056485     -0.117003     -0.012087
Ti	      2.08196     16.83663     14.46840        -0.025116      0.092647      0.027681
Ti	      2.03210     14.89757     16.67150        -0.041586     -0.012135      0.021452
Ti	      2.04165     21.33918     22.93751         0.048129     -0.019043      0.036187
Ti	      2.04405     27.47476     25.05774        -0.017232      0.018918     -0.018298
Ti	      2.04702     27.62016     29.17931         0.046908     -0.028148     -0.024856
Ti	      2.03151     33.84541     31.22783        -0.010881      0.063750     -0.003963
Ti	      2.04503     32.06305     33.31898         0.012864     -0.061480      0.007556
Ti	      4.02894     44.50232     43.69351        -0.026364      0.024611     -0.026130
O	      2.06923     34.20432     33.29003         0.000831      0.049603     -0.013211
O	      1.99908     36.02722     35.38506         0.045772     -0.008354      0.014970
O	      2.04560     38.17200     37.44497         0.025507     -0.005669      0.014294
O	      2.06470      8.45190      8.37219        -0.003578      0.015291      0.021686
O	      2.06667     10.59815     10.45140        -0.021328     -0.027542     -0.023519
O	      1.91932     12.87825     12.46455        -0.016996     -0.008852      0.035213
O	      2.12919     14.74280     14.60755         0.053322     -0.010420     -0.015540
O	      2.06168     16.98279     16.61049         0.050409     -0.010972      0.041338
O	      2.13196     19.09685     18.62392         0.005933     -0.003505     -0.074592
O	      1.99665     21.28922     20.83188        -0.038757     -0.041138     -0.020766
O	      2.06403     23.47819     22.89972        -0.032857      0.047644     -0.049038
O	      2.03263     25.35103     25.10088         0.019366     -0.023051      0.042875
O	      2.02655     27.54155     27.10909         0.012340      0.015184      0.030438
O	      2.03666     29.70663     29.18867        -0.007024     -0.003067     -0.019639
O	      1.94782     31.74645     31.24388        -0.057154      0.025051      0.024843
