# total energy = -256.43970549 eV
 
CRYSTAL
PRIMVEC
0.037546 8.329366 8.328316 
8.472438 2.103242 10.425747 
4.272035 8.350912 8.325114 
PRIMCOORD
32 1
Li	      4.24605      8.29686      8.36597        -0.005447      0.015264      0.004883
Li	      6.44945      8.41173     14.55335        -0.004549     -0.010642     -0.001525
Li	      4.22883     10.36896     10.48601         0.001114      0.001275     -0.015207
Li	      2.17399      2.03222      4.14865        -0.008876      0.013072     -0.013414
Li	      2.21701      6.35188      8.31715        -0.000158      0.009405     -0.014571
Ti	      6.36215     16.71519     18.71719         0.065906      0.096589     -0.020996
Ti	      4.35163      8.24424     12.46172        -0.047535      0.058652     -0.002721
Ti	      4.32312      2.13318      6.27848         0.022383      0.016407      0.009322
Ti	     10.55115     10.53933     16.71992         0.036561     -0.009002      0.050677
Ti	      8.55562      6.26366     14.52842        -0.026338     -0.000602      0.129896
Ti	      6.17608     12.54179     14.57936         0.104735      0.002350     -0.074293
Ti	      4.37102      4.14459      8.28401        -0.050420      0.044637      0.024371
Ti	     10.57723     12.52950     18.73155         0.042060     -0.069311     -0.049023
Ti	      4.39976     14.52145     14.61970        -0.059045     -0.017957      0.016133
Ti	      4.37237      6.30769     10.46629        -0.212731     -0.032942     -0.070116
Ti	     10.49056     14.59184     20.81313         0.190979     -0.012715      0.020534
O	      2.11201     10.40059     10.39274        -0.005644     -0.024720      0.022903
O	      4.31451     10.42729     12.55247        -0.003376     -0.025971     -0.017704
O	      6.44954     10.43582     14.58735        -0.011939      0.001547     -0.028653
O	      8.44963     10.37620     16.76226        -0.051875     -0.010285      0.041247
O	      2.19569     12.50542     12.49280         0.013462     -0.004524     -0.028890
O	      4.06702     12.49491     14.51987        -0.029244      0.010010      0.008339
O	      6.51623     12.63767     16.63513         0.065961     -0.006092     -0.020743
O	      8.49369     12.52976     18.70647        -0.013854     -0.014392      0.014738
O	     10.66049      8.38332     16.66362         0.006046      0.022679      0.018516
O	      4.32080      6.23445      8.34228        -0.007462     -0.008481     -0.018325
O	      6.47449      6.28663     10.35122         0.003241      0.048088      0.005255
O	      8.35202      6.11618     12.49771         0.010691     -0.041068      0.038923
O	     10.59800     10.45897     18.76775        -0.031981     -0.029882      0.009847
O	      4.23362      8.40707     10.35351         0.020575      0.002764     -0.032545
O	      6.45894      8.34894     12.51995        -0.008864     -0.031598     -0.021555
O	      8.53181      8.38487     14.60259        -0.004376      0.007444      0.014695
