# total energy = -114.77258148 eV
 
CRYSTAL
PRIMVEC
0.039177 8.063972 8.500137 
2.078710 2.005239 4.270372 
4.127822 6.069282 2.123965 
PRIMCOORD
16 1
Li	      4.09533      6.04111      2.13412        -0.022695     -0.013455      0.020886
Li	      2.08216      4.06642      2.15847         0.006867     -0.001325      0.001710
Li	      2.12905      6.06234      8.51118         0.025496      0.013014     -0.021196
Li	      4.14323      8.03667      8.48490        -0.008743     -0.003146      0.001861
Li	      4.15590     12.11525      8.49903         0.001983      0.001756     -0.000621
Ti	      4.16029     12.15987     12.73285        -0.057585      0.020832     -0.070203
Ti	      4.13664      8.08379      4.24990         0.005227     -0.000711     -0.014216
Ti	      2.10390      8.00674      6.41248         0.037727     -0.022489      0.076998
O	      2.09087     10.06133     10.55566        -0.040532     -0.002492     -0.022284
O	      4.15617     12.02616     10.79198         0.005841     -0.060255      0.123524
O	      2.16034      4.04519      4.40126         0.068216     -0.001824      0.047428
O	      4.15118      6.05880      4.22686        -0.009293     -0.033926      0.018435
O	      2.07310      6.04380      6.41809         0.010646      0.034401     -0.014439
O	      4.06405      8.05724      6.24402        -0.061840      0.004309     -0.041889
O	      2.10748      8.14033      8.35365        -0.003366      0.060669     -0.127956
O	      4.17267     10.10516      8.58979         0.042051      0.004641      0.021963
