# total energy = -150.89198117 eV
 
CRYSTAL
PRIMVEC
-0.001484 4.160505 4.161393 
10.375376 2.083382 12.476724 
6.234018 2.088469 4.150787 
PRIMCOORD
20 1
Li	      6.29263      4.13086     10.40735        -0.021569     -0.001356      0.013422
Li	      8.26536      4.12454      8.33237         0.005341      0.004747     -0.010319
Li	     10.37740      4.05453     10.37659        -0.001553      0.007097      0.004708
Li	      6.30262      2.12378      8.31568        -0.013460      0.008539     -0.001998
Li	      8.17032      2.27171     10.35396        -0.037082      0.007596      0.002405
Ti	     10.37406      2.12793     12.45868        -0.018950      0.013497     -0.024353
Ti	      2.12417      4.15484      6.20699         0.047460     -0.006350     -0.009113
Ti	     10.37385      6.21835     12.49407         0.017678     -0.010125      0.023506
Ti	     14.54045      6.20486     16.69417         0.013428     -0.017954     -0.013091
Ti	     10.34947      4.18931     14.52173         0.023844     -0.005931     -0.009228
O	     12.36696      4.06165     14.54572        -0.075528     -0.124029      0.003185
O	      4.16500      2.05916      4.15822         0.011791      0.028732     -0.005243
O	      6.28104      2.13504      6.17601         0.072147      0.032685     -0.065281
O	      8.30333      6.19614     12.47408         0.027486     -0.047686     -0.026160
O	     10.36814      6.24198     14.55428         0.008159     -0.046667     -0.011037
O	     12.42892      6.21505     16.65268        -0.002230     -0.001214      0.056448
O	      4.16651      4.16731      6.27032        -0.008906      0.008287     -0.003623
O	      6.20159      4.21718      8.30133        -0.011551      0.023246     -0.030598
O	      8.31390      4.26574     10.51151         0.002045      0.123587      0.068144
O	     10.45429      4.18416     12.40125        -0.038552      0.003299      0.038227
