# total energy = -204.10782106 eV
 
CRYSTAL
PRIMVEC
0.094005 27.068197 26.920700 
2.129414 2.073875 4.157592 
2.147582 10.422890 8.278680 
PRIMCOORD
26 1
Li	      4.10195     18.75073     18.69763         0.031976      0.013612     -0.013596
Li	      2.05610     20.68321     18.73183        -0.005676     -0.016308     -0.007784
Li	      2.15223     18.86376     20.59916        -0.005461      0.006618     -0.007446
Li	      2.19522     20.90748     22.76781         0.014676     -0.004196      0.008800
Li	      0.25633     20.72095     20.70328        -0.001426      0.001686      0.019881
Ti	      0.24876     27.02322     26.97254         0.035887      0.001438      0.020672
Ti	      2.08024     12.51984     10.45625         0.023950      0.013495      0.013225
Ti	      2.15060     14.48478     12.40211         0.003951     -0.055617     -0.009210
Ti	      2.07125     10.48239     12.42954        -0.059463      0.050213     -0.015793
Ti	      0.20557     12.48929     12.32284        -0.014939     -0.034445     -0.021689
Ti	      4.18350     27.05595     27.00842        -0.060071      0.024785      0.022273
Ti	      2.22205     25.07865     26.95976         0.017339      0.000954      0.021648
Ti	      0.15799     24.94161     24.74983        -0.022697     -0.020952     -0.006812
O	      2.15083     29.07912     29.07376         0.003356     -0.006074      0.012914
O	      2.19392     31.22011     31.09251        -0.011399     -0.009555     -0.015700
O	      2.25751     33.29955     33.13777         0.000252     -0.008561     -0.001766
O	      2.14438      8.27858      8.30301        -0.011123     -0.017472      0.020103
O	      2.20734     10.40647     10.37952         0.000286      0.001422      0.008258
O	      2.30113     12.48399     12.60847        -0.019677     -0.007765     -0.006733
O	      2.11208     14.59002     14.46054         0.006095      0.003808      0.009976
O	      2.17680     16.69103     16.58058        -0.005969      0.012611      0.001536
O	      2.14955     18.66937     18.55782         0.001383     -0.013790     -0.044647
O	      2.24351     20.88123     20.66417         0.081663      0.038879      0.023469
O	      2.16720     22.94623     22.71302        -0.008360      0.031839     -0.015640
O	      2.24544     25.00083     24.87249        -0.006163     -0.004413     -0.023373
O	      2.21377     27.18968     26.80347         0.011611     -0.002210      0.007433
