# total energy = -251.74752173 eV
 
CRYSTAL
PRIMVEC
-0.001815 8.370864 8.386544 
8.331107 2.079432 10.494383 
4.170631 2.097028 2.091486 
PRIMCOORD
32 1
Li	      4.08548      2.14670      2.33281         0.018724     -0.003738      0.024248
Li	      4.14348      8.50183     12.55747        -0.025111     -0.001839      0.007896
Li	      4.13705      4.14041      4.32285        -0.005435      0.011472      0.007050
Li	      2.09089      2.18508      4.20467         0.001943      0.009711     -0.019407
Li	      4.22822      6.09418      6.28130         0.006549      0.000673     -0.023538
Li	      2.15666      4.21631      6.06725        -0.002745     -0.000775     -0.016681
Ti	      2.09560      8.49785     10.41067        -0.035760      0.047156      0.042582
Ti	     10.44237     10.48064     16.89099        -0.028725      0.033465      0.027222
Ti	      8.32623      4.19993      8.40497         0.017069      0.039092     -0.051618
Ti	     10.46462      4.07617     10.45229        -0.028387     -0.011980     -0.047336
Ti	      8.28882      6.30448     10.53077        -0.001172      0.039362     -0.016154
Ti	      6.26468      4.21043     10.51495         0.019937      0.002510     -0.001336
Ti	     12.40414     10.52012     18.87352         0.012620      0.005997     -0.053859
Ti	      6.20645      8.22124     10.47436         0.015927     -0.027918      0.008426
Ti	      4.27382      6.24645     10.51621         0.044069     -0.006426      0.020974
Ti	      6.26066      6.23723     12.41365         0.026302     -0.055653      0.054944
O	     10.45506      4.21118     12.55780        -0.005918     -0.028090      0.023044
O	      4.27092      2.10612      4.29117         0.027552     -0.007139      0.027768
O	      6.28122     10.47469     14.62619         0.022333      0.023955     -0.018452
O	      8.36396     10.48318     16.76285         0.021370      0.019505      0.001568
O	     10.42051      6.31946     14.61782         0.001963      0.054045     -0.053234
O	      4.18831      4.06590      6.37363        -0.015499     -0.105482      0.027615
O	      6.22520      4.12892      8.39006        -0.016942     -0.004764     -0.035966
O	      8.36103      4.17829     10.51596        -0.033876     -0.000169     -0.002600
O	     10.38770      8.39066     16.76034         0.010436     -0.001792      0.000110
O	      4.11937      6.31793      8.38345         0.015080     -0.002981     -0.016187
O	      6.27835      6.21601     10.23565         0.005111     -0.011664      0.027905
O	      8.33886      6.23605     12.64405        -0.012068     -0.001189      0.011771
O	      1.92121      8.25611      8.40163        -0.008298     -0.012687      0.014033
O	      4.14920      8.37484     10.50353        -0.012057      0.003585     -0.010729
O	      6.29398      8.39887     12.61983        -0.026948      0.013120      0.033610
O	      8.34687      8.39653     14.68643        -0.008044     -0.019360      0.006333
