# total energy = -251.90011042 eV
 
CRYSTAL
PRIMVEC
-0.000482 4.189909 4.199166 
16.683935 -0.035232 16.828403 
12.512956 4.172278 12.612881 
PRIMCOORD
32 1
Li	     12.43645      4.11229     12.59989         0.004104     -0.021834     -0.015048
Li	      8.41821      4.11302     12.59994        -0.004473     -0.025660     -0.012326
Li	     27.11046      3.99357     27.52375         0.003202     -0.025676      0.033661
Li	     12.43525      6.32489     14.72441         0.007843      0.023018      0.013541
Li	      8.41957      2.13492     10.52625        -0.005257      0.021142      0.012820
Li	     10.42787      2.22202     12.42908        -0.001655      0.019173     -0.032978
Ti	     14.59857      4.22507     14.88814        -0.002816      0.001404     -0.023244
Ti	     16.60626      4.18400     16.78656        -0.079842      0.032247      0.000058
Ti	      6.25763      0.09171      6.37668        -0.006510      0.066466     -0.011406
Ti	     22.94089      8.30189     27.32985         0.004201     -0.065868      0.002165
Ti	     12.58903      4.18506     16.78716         0.078077      0.023544      0.004756
Ti	     14.59812      6.15510     16.74713         0.005213     -0.062848      0.017624
Ti	      4.24884      2.06197      6.33804         0.079589     -0.024655     -0.003017
Ti	      6.25686      2.02138      8.23662         0.002760     -0.002350      0.019902
Ti	     24.94939      6.21626     27.36528        -0.073749     -0.023065     -0.005882
Ti	     14.59768      2.10027     16.82241        -0.003230      0.060362     -0.001388
O	     18.76963      6.28263     23.11600        -0.000282      0.007308      0.000034
O	     20.83585      2.02546     21.06075        -0.040775     -0.020309      0.040316
O	     22.94078      6.25514     27.09643         0.003531     -0.046885      0.019052
O	      8.32025      2.07768      8.43220        -0.023970      0.015177     -0.007610
O	     10.42758      6.16207     14.64055        -0.000472     -0.048609     -0.058456
O	     12.53254      2.04416     12.64654         0.041300     -0.012709      0.039588
O	     14.59883      6.27618     18.87575        -0.004648     -0.022921     -0.030579
O	     16.70570      6.24880     21.04488         0.025435      0.013667     -0.002581
O	     18.76963      4.11861     21.03573        -0.002937     -0.014726      0.008803
O	     20.83302      4.15192     23.10736        -0.025237     -0.012835      0.001614
O	      6.25605      4.15981      8.44782         0.002256      0.026287      0.027454
O	      8.32342      4.20231     10.47835        -0.041244      0.018438     -0.037473
O	     10.42710      4.27487     12.68352         0.000743      0.048447      0.059906
O	     12.53494      4.16858     14.69318         0.025094     -0.012838     -0.000782
O	     14.59773      4.14706     17.05586        -0.003106      0.046873     -0.021000
O	     16.70337      4.18583     18.89209         0.036854      0.020233     -0.037524
