# total energy = -251.57395287 eV
 
CRYSTAL
PRIMVEC
-0.019727 4.231550 4.215322 
8.356749 2.093594 10.521363 
6.233826 4.176610 2.133158 
PRIMCOORD
32 1
Li	      0.11473      4.30970      4.28253         0.002652     -0.024734     -0.009426
Li	     10.29211      4.11360     10.46580        -0.003219      0.013864      0.008928
Li	      2.00523      4.18392      6.18980        -0.000781      0.007616     -0.009586
Li	      6.26166      6.39837      8.47053        -0.005016     -0.001394     -0.012064
Li	     10.37477      6.19311      8.40905         0.011932      0.003474      0.010463
Li	      8.40098      4.22936      8.55559        -0.001428     -0.004501      0.008248
Ti	      4.19344      6.28637      6.23687         0.062298      0.010774      0.018366
Ti	      4.15516      4.21117      8.38403        -0.015683     -0.037329     -0.007151
Ti	     12.41971      8.28129     12.57276         0.006937      0.002983      0.006374
Ti	      8.35718      6.37397     10.46209         0.074138      0.048097     -0.035885
Ti	      6.14320      6.28117      4.30536        -0.005291     -0.049331     -0.021974
Ti	     10.50022      6.31204     12.57788        -0.001868      0.050030      0.010151
Ti	      8.27911      6.21808      6.41434        -0.066105     -0.052894      0.042257
Ti	      4.21799      4.30871      4.30386         0.000631      0.006573      0.000816
Ti	      6.24960      4.20540      6.35985         0.020666      0.033554      0.013557
Ti	     12.44708      6.30653     10.64290        -0.063400     -0.012752     -0.014725
O	      2.08199      2.10730      2.15827        -0.005101      0.028627      0.035032
O	     12.65100      6.22636     12.74198        -0.020462      0.003550     -0.003637
O	      4.14647      2.11140      4.18459        -0.032591      0.014778     -0.023036
O	      6.27432      4.20935      4.28399        -0.049302      0.030746      0.058831
O	      6.25923      6.30302     10.56276         0.023859     -0.004727      0.013673
O	      8.32887      4.18036      6.33134         0.001784     -0.000924     -0.003905
O	      8.32472      6.30902     12.58515         0.002726     -0.035319     -0.023901
O	     10.36422      8.38255     12.59429         0.050975     -0.025959     -0.059738
O	      2.11988      4.13739      4.14843         0.025360     -0.048220     -0.030011
O	     12.34943      8.45923     14.65775         0.015913     -0.004868      0.007859
O	      4.11721      4.17957      6.32939         0.016745      0.030449     -0.017006
O	      6.24067      6.33617      6.41186         0.040420     -0.037539     -0.028875
O	      6.28769      4.23492      8.41437        -0.016063     -0.025244      0.026113
O	      8.31972      6.29547      8.44061        -0.004747      0.000996     -0.005031
O	      8.28466      4.27934     10.59880        -0.023918      0.041902      0.025865
O	     10.39770      6.25706     10.47114        -0.042061      0.037719      0.019416
