# total energy = -89.58803949 eV
 
CRYSTAL
PRIMVEC
-0.000187 2.135430 2.136613 
4.094764 -2.100812 2.101617 
4.322590 6.531645 -6.535450 
PRIMCOORD
16 1
Li	      2.13680      2.26024     -0.12923         0.116821      0.063990     -0.063745
Li	      4.09945      4.16466      0.10180        -0.064713     -0.046440      0.047065
Li	      4.26663      2.37083      1.89427         0.064665      0.046400     -0.045397
Li	      2.13397      4.24320     -2.11076        -0.116822     -0.064840      0.064691
Mn	      4.10159     -2.06741      2.07011         0.132889      0.042922     -0.042367
Mn	      4.26116      4.33981     -4.34170        -0.137266     -0.040863      0.044026
Ni	      6.29089      4.33809     -2.20458        -0.039020     -0.014738      0.014931
Ni	      2.07141      0.06868      2.06880         0.040521      0.014353     -0.016360
O	      6.34247      4.40172     -4.40380         0.001907     -0.000461     -0.000113
O	      6.48761      4.46707     -0.19813         0.143469     -0.050792      0.051421
O	      4.29518      6.51637     -4.38967        -0.000902      0.001178     -0.000369
O	      2.13556      4.31976     -0.05135        -0.000631     -0.000572      0.000010
O	      4.30799      4.52497     -2.38777        -0.072841      0.101066     -0.105390
O	      1.87453     -0.06070      0.06183        -0.138741      0.052100     -0.049935
O	      4.18277      2.20020     -0.07004        -0.000528      0.000621      0.001543
O	      4.05434     -0.11393      2.25597         0.071192     -0.103924      0.099987
