# total energy = -198.84322996 eV
 
CRYSTAL
PRIMVEC
-0.001227 2.153723 2.153748 
26.030370 0.607682 27.375572 
26.030355 2.666715 25.316511 
PRIMCOORD
26 1
Li	     25.93664      2.67120     25.31955        -0.028859      0.000617      0.004014
Li	      6.10152      2.29224      8.46995         0.012557     -0.004427     -0.003184
Li	     10.05369      2.38698     12.68221         0.035311     -0.001816     -0.000963
Li	     14.03055      2.47942     16.89405         0.009602      0.001026      0.001762
Li	     44.04332      3.08586     44.27032        -0.015523      0.000485     -0.001559
Li	     48.01294      3.18259     48.48206         0.001470     -0.002544      0.002725
Ti	     27.93004      2.72197     27.43112        -0.277917     -0.019655     -0.021628
Ti	      4.10921      2.24049      6.35970         0.177225      0.018626      0.016090
Ti	      8.08026      2.33935     10.57587         0.204377     -0.001605     -0.000129
Ti	     12.04780      2.43278     14.78892        -0.049389      0.000781     -0.001445
Ti	     16.01971      2.52621     19.00031         0.025140      0.000680      0.001551
Ti	     46.02308      3.13309     46.37616         0.090235      0.004653     -0.000482
Ti	     49.98908      3.22969     50.58883        -0.207573      0.001887      0.000855
O	     27.95576      2.76864     29.53640        -0.039768     -0.003439      0.000081
O	     30.11227      2.80160     31.62955         0.005024      0.004204      0.003738
O	     32.11370      2.85098     33.73809        -0.221868     -0.003589     -0.006542
O	     34.10041      2.89971     35.84491        -0.041514     -0.003376     -0.000738
O	     36.07951      2.94604     37.95115        -0.003627      0.000700     -0.000685
O	     38.07026      2.99325     40.05819         0.064772     -0.003372     -0.005245
O	     14.03061      2.43183     14.78778         0.089908      0.002554      0.002867
O	     16.02037      2.47899     16.89392         0.015649     -0.000866      0.000683
O	     18.00989      2.52595     19.00044        -0.060670      0.000265      0.000654
O	     20.00041      2.57305     21.10678        -0.038602      0.000903      0.001395
O	     21.98883      2.62122     23.21352         0.050981      0.001037     -0.000860
O	     23.96841      2.66946     25.31958         0.034345      0.003201      0.003796
O	     25.95588      2.71904     27.42788         0.168712      0.003071      0.003249
