# total energy = -216.26760126 eV
 
CRYSTAL
PRIMVEC
-0.009697 4.159868 4.176257 
14.729880 -0.117093 14.699643 
6.302244 2.047843 4.193666 
PRIMCOORD
28 1
Li	     12.63702      6.04348     14.69921         0.063441      0.006217      0.007425
Li	     14.53962      2.01485     12.49109        -0.001835     -0.008652      0.009370
Li	     12.68212      4.20458     16.67070         0.021604     -0.011463     -0.001392
Li	      8.32883      3.96288      8.48431        -0.019804      0.010975      0.001039
Li	      6.48292      1.99275      8.48915        -0.000504      0.007107     -0.010932
Li	      8.37584      2.12336     10.45698        -0.062811     -0.004916     -0.007422
Ti	     14.83999      4.09002     18.84582         0.061066     -0.004685     -0.011835
Ti	      8.42783      6.15122     10.46743         0.031931     -0.058507      0.006847
Ti	     10.48635      6.13836     12.54020        -0.044732     -0.039691     -0.055237
Ti	     16.77099      5.99659     18.82700         0.024317     -0.007246     -0.031767
Ti	      6.17194      4.07709      6.30959        -0.061776      0.007733      0.012306
Ti	      4.24097      2.17101      6.32803        -0.023525      0.006669      0.036180
Ti	     10.52636      2.02872     12.61542         0.047578      0.040077      0.054851
Ti	     18.88844      4.06224     18.88296        -0.033081      0.059407     -0.007047
O	     16.73312      1.97296     16.73605        -0.011393      0.011779     -0.006425
O	      4.28848      2.03358      4.24307         0.011072     -0.009600      0.008494
O	      6.34289      2.00129      6.28170         0.002790      0.001205     -0.015955
O	      8.48740      2.02153      8.31938         0.069418      0.006927     -0.058254
O	     10.51132      2.00352     10.48968        -0.000572      0.003330      0.001584
O	     12.53471      1.98560     12.66040        -0.071607     -0.008311      0.056431
O	     14.67998      2.00698     14.69705        -0.009114     -0.002600      0.018942
O	     16.86497      3.82400     18.85961         0.012682      0.018664     -0.039440
O	      4.14781      4.34378      6.29681        -0.010215     -0.021761      0.033298
O	      6.25865      4.16291      8.34912        -0.039200      0.044915     -0.047404
O	      8.48705      4.16010     10.48459         0.036725      0.086354     -0.002437
O	     10.50614      4.08357     12.57764         0.000312     -0.001728     -0.003810
O	     12.52448      4.00623     14.67101        -0.032034     -0.086292      0.004490
O	     14.75427      4.00390     16.80637         0.039264     -0.045906      0.048103
