# total energy = -216.16085750 eV
 
CRYSTAL
PRIMVEC
-0.274812 14.620726 14.886680 
3.979533 8.334952 12.700576 
4.048030 6.216446 6.350495 
PRIMCOORD
28 1
Li	      7.92124     14.65700     19.06874         0.004466      0.006806     -0.017275
Li	      4.00784     10.37540     10.72850         0.008840      0.002933      0.009142
Li	      5.94732     10.47595     12.72352         0.003767     -0.009845      0.006084
Li	     -0.03137      6.17594      6.35347        -0.005055      0.006266     -0.005210
Li	      1.90965      6.27480      8.35012        -0.011207     -0.000404     -0.009053
Li	      1.97341     10.32897     12.70936        -0.000205     -0.005881      0.018889
Ti	      5.78927     20.76416     23.32327         0.017628     -0.024884     -0.016561
Ti	      3.93784     10.48468     14.72135         0.013192      0.024453     -0.359918
Ti	      5.84682     22.91610     25.59332         0.001203      0.039178      0.044610
Ti	      3.77437     16.69069     21.07139         0.006269     -0.045734     -0.048224
Ti	      5.95780     14.50212     17.05684        -0.015954     -0.027662      0.338234
Ti	      3.83234     18.84142     23.33974        -0.023550      0.031064      0.027327
Ti	      3.82847     18.70625     19.24372        -0.019084     -0.018397      0.037068
Ti	      1.81274     12.56516     14.72023         0.023687      0.014103     -0.033735
O	      1.74564     16.69360     17.08007        -0.030261     -0.003863      0.001472
O	      3.90702     16.59794     18.99265        -0.014470      0.014409     -0.057692
O	      2.01106      4.16087      4.27022         0.011911      0.052942      0.002948
O	      3.74467     18.81537     21.33207         0.003110     -0.025884      0.041312
O	      5.94695     14.57703     18.90194         0.011730     -0.019564     -0.319937
O	      3.69899     20.91591     23.42536         0.006526     -0.008873     -0.004873
O	      1.93974      8.33994      8.53381         0.033856      0.012799     -0.002256
O	      3.97690      8.31038     10.54289        -0.037424     -0.008344      0.003526
O	      5.92236     18.69075     23.23915        -0.000330      0.002741      0.004800
O	      3.94872     10.40902     12.87528        -0.010259      0.020323      0.333162
O	      5.87580     20.79160     25.33248        -0.002973      0.024772     -0.050679
O	      3.90537     12.48995     14.80655        -0.011506     -0.049770     -0.000447
O	      1.73511     14.67333     14.97072         0.005969     -0.008823      0.057511
O	      3.89580     14.57753     16.88377         0.030123      0.005142     -0.000222
