# total energy = -92.08020779 eV
 
CRYSTAL
PRIMVEC
0.000004 2.068647 2.068650 
3.996316 -2.092666 2.092676 
4.003542 6.285406 -6.285432 
PRIMCOORD
16 1
Li	      1.99900      2.08550     -0.01603        -0.000632      0.000488      0.000094
Li	      2.01086     -0.01264      2.08212        -0.012478     -0.016493      0.016008
Li	      5.98304      2.09057     -0.02110         0.014512      0.015761     -0.015788
Li	      3.99871      6.26075     -2.12506         0.001253      0.001583     -0.000373
Mn	      0.08587      0.00947     -0.00859         0.026347      0.001354     -0.001444
Mn	      3.91214      2.09281     -2.09192        -0.028604     -0.001004      0.001099
Ni	      5.99861      4.18205     -2.11272         0.001874     -0.000502      0.000330
Ni	      3.99704      0.00475     -0.00379         0.000731     -0.000443      0.000231
O	      6.13782      4.15631     -4.15555         0.067363      0.140381     -0.141252
O	      5.85999      2.13887     -2.13811        -0.070301     -0.140646      0.140436
O	      4.04789      6.40440     -4.33489         0.126498      0.021456     -0.022195
O	      2.02523      2.10167     -2.10075         0.148828     -0.006328      0.005760
O	      3.95324      4.05217     -1.98255        -0.127431     -0.021834      0.021784
O	      1.97276      0.00051      0.00037        -0.146835      0.006866     -0.006037
O	      3.97758      2.15448     -0.08488        -0.011073      0.097369     -0.097564
O	      4.01683     -0.07604      2.14564         0.009951     -0.098008      0.098912
