# total energy = -228.87602315 eV
 
CRYSTAL
PRIMVEC
0.004180 6.248497 6.276557 
10.397594 4.145726 14.672406 
8.311545 4.153512 8.386654 
PRIMCOORD
30 1
Li	      8.34656     10.35920     14.83400         0.010140      0.012967     -0.016181
Li	      1.99738      6.36204      8.29454         0.019471     -0.012366     -0.000703
Li	      6.22123      6.38734     12.55139        -0.005830     -0.030632     -0.017123
Li	      8.29525      6.16346     10.54742         0.010024      0.018022      0.003451
Li	      2.06653      1.98613      4.01968         0.000903      0.030709      0.014252
Li	     14.53819     12.39611     23.08200        -0.008020      0.018814      0.005403
Li	      8.35234      8.32117     16.71613         0.002350     -0.012935      0.011680
Ti	     12.39558     10.41844     18.89831        -0.041675      0.050351      0.006024
Ti	      8.41011      6.27274     14.62504         0.063551      0.030440      0.037257
Ti	      4.12883      2.19449      6.28586        -0.011854     -0.058180      0.026572
Ti	     18.69486     12.47821     27.24405         0.021182     -0.007998     -0.033418
Ti	     10.47655      8.27373     14.74064         0.042974      0.035329     -0.009437
Ti	     12.44562      8.23190     16.66128        -0.011407     -0.070824     -0.019328
Ti	     14.56948      8.23228     18.94510         0.024378     -0.032185      0.057056
Ti	      8.35347      4.14162     12.59544        -0.032508      0.026153     -0.053747
O	     12.47804      6.26599     16.70429         0.005463      0.110375     -0.015744
O	      4.15167      8.29338     10.48079         0.005236     -0.005645     -0.009713
O	      6.24650      8.34150     12.57873         0.002897      0.007651     -0.007058
O	      8.37506      8.31988     14.61999        -0.000679     -0.039483     -0.025038
O	     10.40574      8.32362     16.76975         0.007285     -0.006548     -0.000941
O	     12.46995      8.26713     18.84380         0.002379     -0.018350     -0.017437
O	     14.61551      8.50992     20.95919         0.008414     -0.031129      0.028207
O	      6.24441      4.15083      8.43985        -0.003283     -0.007615     -0.020865
O	      8.24541      4.13855     10.57770        -0.061925     -0.000006      0.036967
O	     10.37594     10.41626     18.81575        -0.004910      0.000872      0.030385
O	     12.47650     10.37966     20.88697         0.006197      0.007218     -0.034212
O	      4.26087      6.16945      8.47560         0.034994     -0.034108      0.002838
O	      6.16093      6.17252     10.39405        -0.002141      0.000613      0.007716
O	      8.32521      6.24586     12.59370        -0.006398      0.009983      0.021710
O	     10.39418      6.21756     14.68138        -0.077206      0.008505     -0.008572
