# total energy = -228.57388363 eV
 
CRYSTAL
PRIMVEC
-0.049799 10.410197 10.404198 
6.249181 2.069447 8.306160 
6.225693 10.402439 12.463022 
PRIMCOORD
30 1
Li	      8.30971     20.74335     24.98264         0.010313      0.010139      0.012627
Li	      4.14140     10.35646     14.38900        -0.017437     -0.031898      0.002190
Li	      2.13304      4.28751      6.40514         0.006335     -0.009431     -0.015858
Li	      4.12190      4.17046      8.23043        -0.002620      0.000884     -0.016350
Li	      6.22151      8.38184     14.54364        -0.004657      0.012488      0.016144
Li	      6.18761     10.29508     16.49525         0.009399      0.041184     -0.016471
Li	     10.33357     18.72690     25.07536        -0.015615      0.018122      0.017711
Ti	      6.19002     12.47865     18.65849        -0.091199      0.013844     -0.005353
Ti	      6.18889     12.41348     14.50070         0.020114     -0.104039     -0.000406
Ti	      8.26279     12.48838     16.60365         0.010295      0.008248     -0.020285
Ti	     10.40519     12.41253     18.72999         0.030105     -0.020679      0.079001
Ti	      6.31148      6.26196     12.46390         0.049541      0.018736      0.067191
Ti	      8.30460     16.73363     20.89862         0.072471      0.026349     -0.047412
Ti	      4.04103      6.32372     10.30416        -0.046746      0.059711     -0.099955
Ti	      8.28117     18.65516     22.96396         0.015863     -0.068326      0.028476
O	      8.19972     14.63965     20.79101        -0.054114      0.010135      0.032716
O	      4.08427     12.52722     14.52280         0.018296      0.000453     -0.000193
O	      6.18475     12.40405     16.57112        -0.023170     -0.024039      0.008447
O	      8.28253     16.61003     23.10055         0.019720     -0.001199     -0.021303
O	      4.21414     14.45256     16.55929         0.020633     -0.044625     -0.026873
O	      6.19373     14.52206     18.71176        -0.008755     -0.030115      0.044287
O	      8.33545      8.33673     14.54960        -0.011716     -0.010559     -0.046984
O	      4.08268      6.24734      8.33672        -0.067200     -0.004881      0.118581
O	      6.19102      6.21347     10.37004        -0.035586      0.010925     -0.022839
O	      8.27818     10.44625     16.66318         0.019697     -0.003864     -0.026206
O	      4.13694      8.33844     10.36378        -0.020045      0.020169      0.012720
O	      6.27132      8.32974     12.45766         0.030187      0.013353      0.011856
O	      8.33572     12.43969     18.73388         0.001279     -0.027869      0.018634
O	      4.21447     10.40748     12.39802         0.069244     -0.000851     -0.081996
O	      6.20292     10.47644     14.44775        -0.004632      0.117634     -0.022095
