# total energy = -228.67192123 eV
 
CRYSTAL
PRIMVEC
0.077728 31.138003 31.650695 
2.051585 6.227734 8.445166 
2.051727 10.379345 8.445291 
PRIMCOORD
30 1
Li	      4.07300     18.68377     19.02690         0.030508     -0.004634     -0.007869
Li	      2.05212     14.53096     12.69449         0.010443      0.001037     -0.001066
Li	      2.07860     12.45459     14.74796        -0.011020      0.003841     -0.001396
Li	      0.05932      8.30451      8.41389        -0.037951     -0.003695      0.010304
Li	      2.13196     29.06210     27.52860        -0.011335      0.001772     -0.024129
Li	      2.10385     31.13790     29.54622         0.000538      0.001599     -0.000031
Li	      2.07630     29.06234     31.56262         0.010579     -0.002457      0.024915
Ti	      2.14159     41.51678     40.11406        -0.029976      0.002601     -0.035395
Ti	      2.06664     16.60745     18.97898         0.026978     -0.000273      0.029966
Ti	      0.03720     12.45610     12.65503         0.031728     -0.003089     -0.023817
Ti	      2.11335     24.91036     23.24978         0.052375     -0.006256     -0.002557
Ti	      2.10431     26.98734     25.35454         0.107899      0.009066     -0.033612
Ti	      2.10425     31.13719     33.73618        -0.106105     -0.009274      0.043612
Ti	      2.09451     33.21409     35.84290        -0.050221      0.008865      0.007372
Ti	      2.11944     39.44164     37.99127        -0.031580     -0.006072      0.021931
O	      2.05211     33.21278     33.71902         0.024356      0.007828      0.025143
O	      2.12122     35.29022     35.87081         0.003573     -0.000013      0.006969
O	      2.12280     37.36594     37.97380         0.000404     -0.003779     -0.010363
O	      2.14033     39.44050     40.07178        -0.026865      0.008704     -0.042925
O	      2.02912     10.37891     10.54033        -0.008593     -0.000269     -0.003279
O	      2.04330     12.45541     12.66055        -0.009503     -0.001181     -0.003561
O	      2.08856     14.53118     14.78074        -0.003782      0.003760      0.004151
O	      2.10167     16.60775     16.90075         0.009958     -0.003067      0.008362
O	      2.06838     18.68296     19.02020         0.025530      0.004349      0.042920
O	      2.08441     20.75944     21.11958         0.009414     -0.001615     -0.000513
O	      2.08653     22.83468     23.22047         0.002484     -0.003888     -0.004279
O	      2.15666     24.91140     25.37276        -0.026222     -0.003063     -0.019176
O	      2.08268     26.98725     27.43670        -0.004336     -0.006597     -0.008432
O	      2.10379     29.06203     29.54633         0.002102      0.004591     -0.004563
O	      2.12502     31.13768     31.65563         0.008617      0.001210      0.001318
