# total energy = -246.54289398 eV
 
CRYSTAL
PRIMVEC
-0.030772 8.331019 8.343859 
4.141019 6.235729 10.426957 
6.210968 10.392494 8.341989 
PRIMCOORD
32 1
Li	      8.27635     18.69612     18.77929         0.032022     -0.011474     -0.007172
Li	      4.10531     10.40744     10.37308        -0.009488     -0.026597     -0.008357
Li	      6.25601     10.32817     12.45282         0.010086      0.023270      0.014991
Li	      4.20506     10.45204     14.57778        -0.016815     -0.026081      0.017638
Li	      2.09622      4.20967      6.24896        -0.015423     -0.035455      0.028452
Li	      8.28760     16.64142     16.72431        -0.011693     -0.020359      0.020512
Li	      3.95443      8.37970      8.42752         0.005251     -0.001746     -0.033528
Ti	     10.30691     16.58890     18.73695        -0.006328     -0.007960     -0.024402
Ti	      6.24157     16.68763     18.78677         0.044371     -0.002654     -0.020541
Ti	      6.19449     12.49456     10.47248        -0.003160      0.024439      0.041791
Ti	      2.07464     10.43939     12.49408        -0.051438     -0.010097     -0.004073
Ti	      4.14787     12.41779     12.49554         0.019608     -0.020762     -0.031923
Ti	      6.22172     12.46858     14.53263        -0.009223      0.038405     -0.048037
Ti	      4.21620     14.61080     14.67369         0.000186      0.016306      0.040485
Ti	      6.07823     16.54052     14.66368        -0.057528     -0.019409      0.018994
Ti	      6.12047     14.58207     16.64609         0.051743      0.069075      0.008772
O	      2.05447     10.40321     10.40515        -0.028949      0.017026     -0.005188
O	      8.26626     18.74210     20.86894         0.064616      0.032447      0.043007
O	      4.15747     10.36980     12.51910        -0.043040     -0.003704      0.001476
O	      6.22367     12.47404     12.49939        -0.026316     -0.012987      0.006182
O	      2.10355      4.18474      4.14386         0.028526      0.005453      0.009792
O	      8.30752     20.77219     22.96320        -0.045969     -0.001955      0.020700
O	      4.10596     12.47765     14.63121         0.016661     -0.007515      0.002729
O	      6.31429     14.50146     14.52363        -0.010665     -0.044230      0.005633
O	      2.03122      6.27420      6.21439         0.011002      0.040020     -0.012085
O	      8.22694     14.55089     16.69080         0.030882     -0.032909      0.002180
O	      4.01231     14.57659     16.69190         0.048782     -0.017576     -0.006945
O	      6.16466     16.63599     16.71252         0.006402     -0.005332     -0.031174
O	      1.96579      8.37631      8.34522        -0.043046      0.017158     -0.037687
O	      8.22930     16.63004     18.77261        -0.016238      0.003185     -0.005524
O	      4.19995      8.25246     10.47274         0.010772     -0.012799      0.019082
O	      6.20093     10.41466     10.41231         0.014407      0.034820     -0.025778
