# total energy = -246.20995961 eV
 
CRYSTAL
PRIMVEC
-0.008739 8.378389 8.378456 
8.337316 2.099635 10.459328 
6.253144 8.382645 10.462296 
PRIMCOORD
32 1
Li	      8.42775     16.79199     21.07965         0.013459      0.012118     -0.013370
Li	      4.11225      8.33586     12.42580         0.025220      0.003699     -0.015735
Li	      2.26335      2.16889      4.06244         0.004109     -0.009371     -0.008745
Li	      2.12053      4.14813      6.10299        -0.006172      0.001994      0.005232
Li	     12.40300     12.57507     21.05971         0.003087      0.003310      0.000783
Li	     10.46636     14.67073     21.00144         0.012847     -0.001957      0.028379
Li	     12.34306     14.64998     22.98154        -0.003224     -0.006732     -0.012038
Ti	      8.35971      2.16590     10.52007         0.070153     -0.002069      0.031388
Ti	      6.16524      8.43394     14.59750        -0.079034      0.039282     -0.052258
Ti	      6.19699     10.47899     12.62283        -0.055156      0.013543      0.042747
Ti	     10.43368     10.41517     16.81343        -0.042576      0.005577     -0.030934
Ti	     12.43244     10.53412     18.84261        -0.057387      0.045817      0.014622
Ti	      8.43177      6.24342     14.53955         0.280429     -0.045281     -0.038103
Ti	     10.41501     12.47449     18.88417        -0.010571     -0.080994      0.097800
Ti	      8.45224      8.42213     16.76456         0.089371     -0.014640      0.019158
Ti	      2.06450      6.33834      8.35012        -0.018838      0.052805      0.033385
O	     10.32777     12.56928     20.85373        -0.037921      0.001199     -0.081320
O	      4.22735     10.48505     12.64630         0.097073     -0.003100      0.014219
O	      6.35938     10.47750     14.66688         0.003711      0.012155     -0.044642
O	      8.29943     10.47722     16.78508        -0.038692     -0.019004      0.008589
O	     10.29642      6.27751     14.60252        -0.294414     -0.003047     -0.002802
O	      4.19357     12.59215     14.69452        -0.000918      0.024246      0.002645
O	      6.22746     12.61134     16.69238        -0.008719      0.027144      0.017604
O	      8.31890     12.63083     18.87047         0.002056     -0.006649      0.033778
O	     10.42422      8.28203     16.65772        -0.030717     -0.015815     -0.024088
O	      4.21853      6.26462      8.36553         0.030058     -0.012212      0.017306
O	      6.26844      6.33841     10.43212         0.019093      0.006639     -0.015997
O	      8.33686      6.27274     12.53563         0.011021     -0.028449      0.056342
O	     10.38841     10.45608     19.02082        -0.012887      0.020927      0.001748
O	      4.25729      8.42912     10.36800         0.055775     -0.005462     -0.063979
O	      6.21119      8.39215     12.55058        -0.000678      0.020576     -0.019405
O	      8.26473      8.30506     14.69141        -0.019560     -0.036249     -0.002307
