# total energy = -246.22755402 eV
 
CRYSTAL
PRIMVEC
0.001612 2.073280 2.075032 
16.449216 -0.122824 16.735717 
18.530327 4.097614 14.588406 
PRIMCOORD
32 1
Li	     18.42871      4.06841     14.61415        -0.005601     -0.005120      0.005118
Li	     20.66023      3.96048     20.95023         0.006562     -0.004845      0.006064
Li	     22.54278      2.01971     20.81738        -0.006461      0.006648     -0.005768
Li	      8.33344      2.03922     10.41600         0.008934      0.004031     -0.004542
Li	     10.21176      2.00338      8.37354        -0.003515     -0.004434      0.006154
Li	     12.34071      1.98201     14.62574         0.000478     -0.003869      0.003067
Li	     16.54766      4.10418     16.65716        -0.005545      0.012289     -0.014507
Ti	     18.46035      1.93127     16.75319        -0.009665      0.052898     -0.051634
Ti	     20.57772      4.05160     16.70594         0.039776     -0.033114      0.044090
Ti	     22.63259      4.06974     18.76747        -0.023934     -0.010218      0.002269
Ti	      6.18232      2.04424      8.33264        -0.019047      0.042492     -0.054616
Ti	     24.75061      4.05859     25.00874         0.033698     -0.074206      0.064900
Ti	     28.72091      3.97963     25.09321        -0.062857     -0.006297      0.003954
Ti	     12.42033      4.03984     12.54807         0.008058      0.069540     -0.030301
Ti	     14.33798      2.07110     12.48090         0.015938     -0.067993      0.023659
Ti	     14.49051      2.00765     16.67110         0.036410      0.004715      0.001773
O	     18.47986      1.92105     18.83931        -0.046031     -0.021190      0.018126
O	     20.54275      4.00670     18.82449        -0.017431     -0.002425      0.009043
O	     20.55819      1.92802     20.91300        -0.014256     -0.010374      0.006036
O	     22.65823      4.05850     20.84868         0.037214      0.022636     -0.011032
O	      6.20805      2.09057      6.21252         0.008673     -0.007301      0.006637
O	     24.72373      4.06009     22.92869         0.030767      0.020741     -0.017965
O	      8.24188      2.09497      8.28709        -0.037918      0.043846     -0.032898
O	     26.75485      4.01521     25.05091         0.030663      0.020902     -0.020964
O	     10.31077      1.93718     10.51428         0.038974     -0.023149      0.020617
O	     28.76123      3.95969     27.18115         0.021590     -0.012812      0.002256
O	     12.24404      1.92881     12.58801        -0.061657     -0.005466      0.018273
O	     14.51632      4.18226     12.44093         0.061566     -0.007592     -0.007663
O	     14.44643      2.02808     14.58323        -0.013008      0.009920      0.003512
O	     16.44690      4.17341     14.51396        -0.033258      0.030457     -0.029160
O	     16.45156      1.97176     16.71369        -0.044093     -0.013965      0.012219
O	     18.51209      4.01219     16.74197         0.024977     -0.026745      0.023283
