# total energy = -223.12733966 eV
 
CRYSTAL
PRIMVEC
0.070824 10.408192 10.380254 
6.282838 2.113918 8.314448 
4.183703 2.100378 2.085611 
PRIMCOORD
30 1
Li	      6.36328     12.52600     18.69105         0.010749     -0.004620     -0.000666
Li	      8.38070     12.48661     16.53360         0.001173     -0.007649      0.022993
Li	      2.16278      2.09849      4.19616        -0.000411     -0.012690     -0.011011
Li	     10.44593      8.46513     14.59822         0.004185     -0.001644     -0.004069
Li	      2.00865      4.27466      6.16804         0.023889      0.019406      0.000996
Li	      6.36237      8.27180     14.42697         0.011565     -0.003569      0.010849
Li	      8.30662      8.35649     12.57610        -0.002565     -0.010933      0.024589
Li	      8.51055     10.35214     14.60210        -0.016517     -0.009539     -0.003554
Ti	      2.22939     10.44461     12.37903         0.018298     -0.004213      0.003542
Ti	      4.14354      4.22247      4.23328        -0.113812      0.034428      0.047903
Ti	      8.40415      4.13060      8.36421         0.023695     -0.093842     -0.030374
Ti	      4.28305      4.23597      8.30422        -0.018874      0.153623      0.017801
Ti	      6.24638      8.35464     10.33208         0.001231     -0.037753     -0.262184
Ti	     10.47317     12.51412     18.67418        -0.018251     -0.010996     -0.042271
Ti	      2.19662      8.37598     10.42290         0.044414      0.052355      0.055451
O	      2.12455      2.11833      2.13369         0.003525      0.029426      0.001052
O	      4.27746      2.20699      4.19288         0.014651      0.047579      0.006946
O	      6.31948     12.49419     16.57508        -0.026508     -0.002870     -0.028468
O	      8.49915      6.30520     12.43015         0.100385      0.005044     -0.051034
O	      4.22495      4.13389      6.24933         0.007930      0.010859     -0.025485
O	      6.29696      4.21035      8.37499        -0.011625     -0.008980      0.001129
O	      2.08441      6.23609      6.38390         0.003796      0.014190      0.241397
O	      4.13091      6.14806      8.28942        -0.031354     -0.138030      0.007985
O	      6.40670      6.24080     10.44167        -0.002698     -0.016664      0.002472
O	      2.11240      8.27108      8.35976        -0.011603     -0.055428      0.020046
O	      4.21839      8.32515     10.39875         0.019790      0.039727      0.019543
O	      6.30521      8.46356     12.38397        -0.011545      0.032302     -0.030867
O	      8.36111     12.52516     18.59721         0.019983     -0.012733      0.013984
O	      4.25663     10.45219     12.41838        -0.031902     -0.020510     -0.017200
O	      6.31622     10.47896     14.54258        -0.011594      0.013725      0.008506
