# total energy = -222.86929711 eV
 
CRYSTAL
PRIMVEC
0.090368 10.304841 10.619896 
6.293805 4.121400 10.674429 
6.293598 8.243453 10.674328 
PRIMCOORD
30 1
Li	      6.46927     14.42606     21.22422         0.008377     -0.000239     -0.008338
Li	     10.56218     18.54802     25.81045         0.003279     -0.001303      0.019098
Li	      6.32678      6.18210     12.56945         0.010827      0.000177     -0.028210
Li	     10.43127     20.60882     27.80185        -0.005369      0.000821      0.033104
Li	      2.30288      4.12176      6.48372         0.006481     -0.000514      0.050239
Li	     10.36213     12.36457     19.14721        -0.031612      0.000666     -0.026510
Li	      2.18661      6.18223      8.49368         0.024539      0.000730     -0.018324
Li	      2.08981      8.24384     10.51859        -0.001282     -0.001284     -0.037524
Ti	      8.44762     18.54864     23.45872        -0.284778     -0.005001     -0.050664
Ti	      2.15312      2.05998      4.27452         0.126693      0.004658      0.183354
Ti	     12.59639     16.48721     25.57387        -0.153065     -0.003381      0.026210
Ti	      6.27322     14.42641     17.11178        -0.248852     -0.000613     -0.006303
Ti	      4.21639      6.18229     10.56798         0.042856     -0.000339     -0.368816
Ti	      6.46881     12.36495     19.11851         0.336688     -0.000109      0.028241
Ti	     10.56874     16.48606     23.51283         0.216618      0.005428      0.052611
O	      8.43122     16.48752     23.44666        -0.002316     -0.003591     -0.024822
O	      4.26174     12.36523     14.90913         0.004844      0.000478     -0.008663
O	      6.34156     12.36537     17.03585         0.009407      0.000759      0.044535
O	      8.44498      8.24249     14.95118        -0.021428      0.002884     -0.007475
O	      4.40260     14.42667     17.07789         0.256091     -0.002230      0.002165
O	      6.39210     14.42600     19.13969        -0.007889     -0.000079     -0.040225
O	      8.30555     10.30386     16.92378        -0.026908      0.000800     -0.100506
O	      4.26444      6.18231      8.66895         0.017601      0.000250      0.188116
O	      6.18976      6.18198     10.53693        -0.072389      0.000576      0.011344
O	      8.31026     12.36472     19.16459        -0.326279      0.001358      0.006646
O	      4.20633      8.24315     10.73845        -0.000745      0.000048      0.033106
O	      6.32735      8.24346     12.81827         0.016979     -0.000526     -0.059099
O	      8.56588     14.42560     21.44344         0.084449      0.002230      0.117980
O	      4.27754     10.30386     12.73857        -0.038747      0.000795      0.018856
O	      6.32157     10.30470     14.93660         0.055931     -0.003450     -0.030126
