# total energy = -235.25799001 eV
 
CRYSTAL
PRIMVEC
-0.000219 4.149179 4.149873 
16.523892 0.048998 16.549656 
4.131050 2.074561 2.074752 
PRIMCOORD
32 1
Li	      4.13035      6.21399      6.23026         0.002052     -0.002406      0.001533
Li	      8.26091      6.21685     10.37563         0.003390      0.005201     -0.005821
Li	      6.19280      0.04327      6.17924         0.004834     -0.005596      0.009052
Li	      8.26529      4.23142     12.36998        -0.003330      0.020952     -0.031032
Li	     18.58719      6.23956     20.72933         0.004939      0.010277     -0.005881
Li	     16.52505      2.13894     18.60503        -0.002913     -0.004519      0.011355
Li	      4.13119      2.09318      6.20214         0.001135      0.003650      0.000802
Li	     10.32980      2.10621     12.42034        -0.003451     -0.002420     -0.004321
Li	     16.52715      4.12867     16.61702        -0.003724     -0.021682      0.029771
Ti	      2.06555      4.15306      6.21598         0.001976     -0.000289      0.003192
Ti	     10.33124      4.18074     14.49375         0.000602     -0.003126      0.003520
Ti	     12.39224      4.20614     16.53994         0.003168     -0.024095      0.005713
Ti	      2.06602      2.07961      4.14169        -0.000956      0.000588      0.012973
Ti	      6.19819      2.14732      8.22374        -0.011389     -0.003799      0.006169
Ti	     12.39163      4.15414     12.44728         0.008590      0.020698     -0.009019
Ti	     18.59171      4.13508     18.68562        -0.014970      0.013488     -0.008437
O	     18.57339      2.11454     18.61457         0.014549      0.024550      0.013291
O	      4.13271      2.07946      4.14205         0.006717     -0.002146     -0.004502
O	      6.21271      2.07608      6.20247        -0.010065      0.027514      0.025396
O	      8.15930      2.07327      8.37993        -0.072487      0.032620      0.059106
O	     10.29668      2.09513     10.33964        -0.021610      0.022600     -0.018257
O	     12.39062      2.10470     12.41925         0.016996      0.008620     -0.003827
O	     14.49077      2.10246     14.48606         0.028104     -0.021750      0.010898
O	     16.42146      2.13658     16.45699        -0.066253     -0.035667     -0.054266
O	     18.60580      4.20690     20.70548        -0.012483     -0.028549     -0.014288
O	      4.12872      4.15376      6.21612        -0.006763      0.002892      0.002833
O	      6.18023      4.16854      8.29477         0.012006     -0.032386     -0.027423
O	      8.36501      4.06854     10.37504         0.079502     -0.066318     -0.032607
O	     10.35971      4.18248     12.42663         0.022977      0.018527     -0.023278
O	     12.40253      4.18037     14.49393        -0.032880     -0.001183     -0.004556
O	     14.42804      4.18972     16.57184        -0.028617     -0.014993      0.018717
O	     16.62748      4.29181     18.61061         0.080355      0.058746      0.033195
