# total energy = -235.04904707 eV
 
CRYSTAL
PRIMVEC
-0.000018 4.177018 4.177166 
8.305022 0.015544 8.338787 
8.302877 6.263389 6.267868 
PRIMCOORD
32 1
Li	      8.24457      6.21046      6.37625         0.009552      0.016357      0.012828
Li	     10.37418      6.27511      8.36155        -0.003087      0.010443      0.004661
Li	      4.21013      6.21321      6.37324        -0.009548      0.012904      0.017708
Li	      4.20973      4.29314      8.29437        -0.009462      0.013239      0.017870
Li	      6.22717      6.22951      8.31341        -0.000081     -0.031812     -0.032754
Li	      6.22810      4.19108     10.37687         0.000907      0.001460     -0.032142
Li	      2.08078      2.10012      4.18173         0.001662      0.010632      0.005489
Li	     14.53114      8.30990     14.61222        -0.000553     -0.035406      0.006966
Li	      8.24506      4.29130      8.29645         0.007364      0.016237      0.015088
Ti	     10.37900      6.28640     12.53120        -0.000330     -0.025020     -0.010606
Ti	      8.26847      6.20707     10.45395         0.030626     -0.054382      0.012783
Ti	      8.27014      2.11997     10.36185         0.022514      0.012121     -0.051534
Ti	     10.38003      4.19631     10.44104        -0.000602      0.000876      0.015183
Ti	     12.49126      4.20784     12.45215        -0.035037      0.012809     -0.051355
Ti	     12.48885      8.29403     12.54315        -0.017938     -0.053295      0.010346
Ti	      6.22723      4.29538      6.37958        -0.000648      0.340062      0.325758
O	     10.36370      2.14465     10.40742        -0.056341      0.016580     -0.055025
O	     12.45027      8.33977     14.59838        -0.008086      0.008297      0.017126
O	      4.13263      2.20533      4.28843         0.033278      0.061179      0.044782
O	      6.22674      8.35078      8.36408        -0.005451     -0.013656      0.014974
O	      6.22723      2.10346      6.25742         0.006576      0.015661     -0.012668
O	      8.24856      8.28178     10.36706        -0.071082     -0.000323      0.006099
O	      8.30807      2.07484      8.33218         0.013764      0.009316      0.001994
O	     10.39559      8.33904     12.56689         0.050594     -0.053760      0.011472
O	     10.39699      4.23289     12.49501         0.062199      0.023202     -0.054211
O	     12.45113      6.26421     12.49774        -0.021881      0.000924      0.005245
O	      4.20575      4.10604      6.18875         0.070841      0.003041      0.000045
O	      6.22699      6.13209      6.26724        -0.000414     -0.340867      0.009077
O	      6.22744      4.18369      8.21586         0.000733      0.007229     -0.335101
O	      8.32174      6.38163      8.46612        -0.032690      0.052481      0.055658
O	      8.30887      4.17603     10.40821         0.018803      0.015821      0.005580
O	     10.36233      6.24951     10.47792        -0.056182     -0.052352      0.018665
