# total energy = -59.06576606 eV
 
CRYSTAL
PRIMVEC
0.000181 2.203895 2.203138 
4.333680 -2.231031 2.230633 
2.116993 2.195740 -4.397939 
PRIMCOORD
8 1
Li	      0.12155      0.01835     -0.02207         0.301870      0.086857     -0.049567
Li	      2.13178      2.28205      0.02772         0.204808     -0.064205      0.054163
Ti	      2.30629      0.05672      2.14522        -0.030739     -0.217708      0.474780
Ti	      4.60319      0.01456     -0.01611        -0.068127      0.280618     -0.047271
O	      4.48244      0.02740      2.28473        -0.819588      1.194414     -1.379723
O	      2.23744      2.30538     -2.30511        -0.058941     -0.540604      0.608521
O	      2.31946     -0.06753      0.06482         0.919494     -0.393022      0.483011
O	      4.51265      2.29072      0.02237        -0.448776     -0.346351     -0.143914
