# total energy = -90.44317951 eV
 
CRYSTAL
PRIMVEC
2.029071 4.185801 2.029067 
4.100037 -2.116149 -2.023853 
2.023860 2.116183 -4.099944 
PRIMCOORD
12 1
Li	      0.05391      0.00153     -0.05134        -0.090970     -0.039066      0.018291
Li	      2.02691      2.08115     -0.00637        -0.028544      0.021343      0.081787
Li	      1.98249      0.00032     -1.97964        -0.058602     -0.037658     -0.018785
Ti	      4.02099      2.08197     -1.99912        -0.044053      0.047713      0.153081
Ti	      4.06445      0.00029     -4.06194         0.038107     -0.152217     -0.227835
Ti	      6.12741      2.08224     -4.10580         0.283175      0.038325     -0.166912
O	      4.07055     -0.00298     -2.03820         0.008566     -0.207661      0.050907
O	      6.05574      2.08623     -2.07102         0.230136     -0.037550      0.117871
O	      4.09274      2.07913     -4.03370        -0.145360      0.151923     -0.265951
O	      4.06375      2.06267      0.01275         0.006128      0.083218      0.234526
O	      2.00874      2.10259     -2.04226        -0.195014     -0.076817      0.010019
O	      4.05979      4.16834     -2.04919        -0.003569      0.208447      0.013000
