# total energy = -92.48517034 eV
 
CRYSTAL
PRIMVEC
2.073765 4.100088 2.045761 
4.168624 -2.040012 -2.086505 
0.037306 4.091252 -4.110647 
PRIMCOORD
16 1
Li	      2.04271      2.04466     -0.04598        -0.008651     -0.001871     -0.015954
Li	      2.10179      0.05289     -2.08318         0.002468     -0.005794      0.000512
Li	      0.02842      2.03828     -2.05145        -0.015529     -0.003458      0.010456
Li	      2.13502      4.03777     -2.08160        -0.008008     -0.017638      0.017335
Mn	      0.06060      0.01594     -0.03527         0.030397     -0.005773     -0.038429
Mn	      4.15540      2.06883     -2.08989        -0.006509      0.021406      0.032484
Ni	      4.14397      6.11109     -2.04371        -0.024310     -0.056121     -0.064448
Ni	      4.18456      4.09776     -4.13885        -0.010337      0.017386      0.002479
O	      4.13681      4.00615     -2.12450         0.012406     -0.138258      0.134184
O	      4.13959      2.06644     -4.12384         0.094915     -0.131131     -0.021315
O	      4.28556      2.04835     -0.11811         0.040392      0.123123     -0.077394
O	      4.18882     -0.00528     -2.04929        -0.004933     -0.000068     -0.134724
O	      1.95965      4.12242      0.12103        -0.022583      0.003335      0.027425
O	      2.28384      2.02547     -2.08942         0.068607      0.000686      0.129553
O	      2.13503      6.30771     -2.04765        -0.057175      0.072396     -0.011913
O	      1.98078      4.06181     -4.13285        -0.091149      0.121780      0.009749
