# total energy = -88.29848097 eV
 
CRYSTAL
PRIMVEC
2.141231 4.417176 2.141226 
4.326672 -2.233122 -2.135725 
2.135732 2.233158 -4.326574 
PRIMCOORD
12 1
Li	      0.06003      0.00171     -0.05717         0.827530      0.416775     -0.125856
Li	      2.25718      2.31758     -0.00710         0.257799     -0.169424     -0.672771
Li	      2.20772      0.00036     -2.20454         0.335981      0.257287      0.343046
Ti	      4.47780      2.31850     -2.22624        -0.057167     -0.285174     -0.725055
Ti	      4.52620      0.00033     -4.52341         0.176682      0.639798      1.317138
Ti	      6.82353      2.31880     -4.57226        -1.582119     -0.468327      0.363047
O	      4.53300     -0.00332     -2.26976         0.183633      1.277416      0.288094
O	      6.74372      2.32325     -2.30631        -1.647446      0.828913     -0.873390
O	      4.55771      2.31533     -4.49197         1.100273     -0.981108      1.788732
O	      4.52543      2.29701      0.01420        -0.088463     -0.878969     -1.215602
O	      2.23695      2.34146     -2.27427         0.683213      0.865423     -0.197642
O	      4.52102      4.64189     -2.28200        -0.189916     -1.502609     -0.289741
