# total energy = -89.36726077 eV
 
CRYSTAL
PRIMVEC
3.999244 -0.000190 -0.000035 
0.000036 -0.000623 -3.943088 
-0.000295 6.122142 -1.970565 
PRIMCOORD
12 1
Li	      0.00266      0.03423     -3.82311        -0.259471     -0.294160     -0.256742
Li	      1.94346      1.98112     -3.82467         0.259458     -0.223273     -0.307200
Li	      0.00202      3.92741     -3.82357        -0.293433      0.116053     -0.329104
Ti	      1.94170      5.92022     -3.82379         0.718883      1.406375     -1.068330
Ti	      0.00197      1.98208     -1.91224        -0.961674      0.085472      0.620962
Ti	      1.94254      3.98021     -1.91113         0.833877     -0.183528      1.121423
O	      1.94129      1.98100     -1.91048         1.104905     -1.379262      0.402746
O	      1.94195      5.93190     -1.91151         0.368718      1.953004      0.944375
O	      0.00311      3.94680     -1.91191        -0.966245      1.443668      0.406552
O	      0.00113      1.98186     -3.82307        -0.373899     -0.178686     -0.803888
O	      1.94220      3.96825     -3.82355         0.377557     -0.852039     -1.113958
O	      0.00224      0.01625     -1.91247        -0.808675     -1.893624      0.383163
