# total energy = -88.85774173 eV
 
CRYSTAL
PRIMVEC
4.308464 -0.000205 -0.000038 
0.000038 -0.000671 -4.247966 
-0.000318 6.595503 -2.122928 
PRIMCOORD
12 1
Li	      0.00305      0.04040     -0.18921         0.161815      0.306610      0.117357
Li	      2.25561      2.29933     -4.43899        -0.134082      0.183317      0.184084
Li	      0.00234      4.55822     -4.43771         0.146128     -0.029540      0.181162
Ti	      2.25389      0.27561     -2.31503         0.081719     -1.444239      0.303826
Ti	      0.00228      2.30044     -2.21938         0.387204      0.082079      0.376943
Ti	      2.25455      4.61950     -2.21808         0.051185      0.020295     -0.087939
O	      2.25310      2.29918     -2.21734        -0.651156      0.823980     -0.360368
O	      2.25418      0.28916     -0.09560        -0.319971     -1.518479     -0.112457
O	      0.00361      4.58073     -2.21900         0.121298     -0.965355     -0.328414
O	      0.00131      2.30018     -4.43712         0.336919      0.227516     -0.138203
O	      2.25415      4.60562     -4.43768        -0.384140      0.385000      0.211430
O	      0.00260      0.01886     -2.21964         0.203081      1.928817     -0.347421
