# total energy = -90.50145356 eV
 
CRYSTAL
PRIMVEC
4.117537 -0.000618 -0.001099 
0.000469 4.160980 -4.159287 
-2.059876 4.207450 2.126293 
PRIMCOORD
12 1
Li	      0.00269      0.07208     -0.05803         0.016608      0.067116     -0.006538
Li	      2.07100      2.07092     -0.01968        -0.034875      0.045573     -0.019114
Li	      0.00236      2.06974     -1.98370         0.018876      0.046791      0.051898
Ti	      0.00144      4.21935      0.03391         0.042170     -0.028100     -0.104000
Ti	      2.07199      4.18699     -2.09621        -0.142422      0.095420      0.102454
Ti	      0.00168      6.29806     -2.07515         0.046737     -0.112339     -0.027303
O	      0.00155      2.19598      0.08519         0.038222      0.331849      0.139027
O	      2.07020      4.23824      0.01791        -0.073291     -0.012454     -0.158388
O	      0.00279      4.15538     -2.11498         0.081849      0.107785      0.136314
O	      2.07063      6.28131     -2.05418        -0.074070     -0.129738      0.030454
O	      0.00143      6.30317      0.01743         0.044573     -0.110555     -0.205795
O	      2.06101      0.02555     -0.01329         0.035622     -0.301348      0.060992
