# total energy = -88.40418435 eV
 
CRYSTAL
PRIMVEC
4.301905 -0.000645 -0.001148 
0.000490 4.347292 -4.345523 
-2.152109 4.395843 2.221501 
PRIMCOORD
12 1
Li	      0.00293      0.07868     -0.06334         0.183586      0.623049     -0.089552
Li	      2.26061      2.26052     -0.02148        -0.148783      0.681484     -0.184709
Li	      0.00257      2.25924     -2.16532         0.160627      0.336400      0.255692
Ti	      0.00157      4.60566      0.03701        -0.280381     -0.089301      0.084832
Ti	      2.26170      4.57034     -2.28813        -0.489554     -0.333227      0.014178
Ti	      0.00184      6.87470     -2.26514        -0.147031     -0.360775     -0.316223
O	      0.00169      2.39704      0.09300         0.268770      1.932676      0.856827
O	      2.25974      4.62628      0.01955        -0.118112      0.124205     -1.145915
O	      0.00304      4.53584     -2.30862         0.088638      0.885039      0.957935
O	      2.26021      6.85641     -2.24225        -0.233968     -1.082535      0.362384
O	      2.15367      2.48443     -2.20248         0.375859     -0.229484     -1.176437
O	      2.15337      0.41937     -0.10961         0.340350     -2.487531      0.380989
