# total energy = -118.69459556 eV
 
CRYSTAL
PRIMVEC
1.975987 4.038199 2.004478 
4.003981 -2.044634 -2.005404 
-0.015787 4.036378 -3.989984 
PRIMCOORD
16 1
Li	      0.09154      0.05269     -0.06779        -0.316579     -0.347824      0.295495
Li	      1.91852      1.93930      0.00148        -0.222960      0.105681      0.613751
Li	      3.74517      3.83055      0.07116         0.271903     -0.075847      0.403848
Li	      1.91093      3.88919     -1.92344        -0.380681      0.283506      0.087459
Ti	      3.82834      1.93553     -1.91126         1.580553     -0.045376      0.152632
Ti	      0.03883      1.96218     -1.92951        -2.184430     -0.659836     -0.448544
Ti	      3.78299      5.81611     -1.91727         0.672559      1.199564     -1.151323
Ti	      3.85780      3.87028     -3.87122         1.120750      1.359861     -1.331791
O	      1.93226      1.92579     -1.91176        -0.477529     -0.454788      0.628810
O	      3.82031      3.87987     -1.88775         0.516542      0.297802      1.356350
O	      1.99455      3.77195     -3.84810        -1.579021      0.801507     -0.708361
O	      3.82738      1.89197      0.00872         0.557718     -0.095573      1.575152
O	      3.87358      0.01818     -1.94061         0.316787     -2.349786      0.078934
O	      1.82751      4.00622      0.00076         0.367093      0.237596      0.933319
O	      3.86538      1.92564     -3.89432         0.969322     -1.116943     -1.855955
O	      1.88963      5.85243     -1.93522        -1.212026      0.860457     -0.629775
