# total energy = -118.88899690 eV
 
CRYSTAL
PRIMVEC
2.129561 4.352048 2.160267 
4.315171 -2.203544 -2.161264 
-0.017014 4.350086 -4.300086 
PRIMCOORD
16 1
Li	      0.10632      0.06119     -0.07874         0.234520      0.485671     -0.183736
Li	      2.22832      2.25246      0.00172         0.120018     -0.143367     -0.411735
Li	      2.22039      0.09706     -2.07761        -0.177919      0.179499     -0.423645
Li	      2.21951      4.51722     -2.23404         0.152320     -0.246630     -0.053031
Ti	      4.44655      2.24808     -2.21989        -0.701113     -0.188056     -0.060493
Ti	      0.04509      2.27903     -2.24109         1.285639      0.634279      0.670156
Ti	      2.26431      2.40326     -4.38713        -0.036310     -0.201191      0.507828
Ti	      4.48076      4.49526     -4.49634        -0.445344     -0.309665      0.099678
O	      2.24429      2.23678     -2.22048         0.458534      0.345397     -0.857262
O	      4.43722      4.50639     -2.19259         0.054538     -0.215067     -0.661490
O	      2.31663      4.38105     -4.46949         1.021544     -1.051261      0.600615
O	      4.44543      2.19749      0.01013        -0.421165     -0.177008     -0.434653
O	      4.49908      0.02112     -2.25399        -0.300696      1.468783      0.146954
O	      2.12262      4.65314      0.00088        -0.734525      0.023555     -0.703369
O	      4.48956      2.23659     -4.52318        -0.820069      0.363569      1.236761
O	      2.19477      6.79749     -2.24772         0.310029     -0.968508      0.527421
