# total energy = -118.49424241 eV
 
CRYSTAL
PRIMVEC
2.139799 4.372972 2.170653 
4.335917 -2.214138 -2.171655 
-0.017096 4.371000 -4.320760 
PRIMCOORD
16 1
Li	      0.10734      0.06178     -0.07950         0.251257      0.563530     -0.198303
Li	      2.24979      2.27417      0.00173         0.130706     -0.160468     -0.446700
Li	      2.25208      0.11903     -2.08721        -0.192631      0.207315     -0.478649
Li	      2.24090      4.56076     -2.25557         0.151177     -0.272833     -0.055131
Ti	      4.48940      2.26975     -2.24129        -0.732746     -0.255429     -0.050306
Ti	      0.04553      2.30100     -2.26269         1.351099      0.705573      0.786831
Ti	      2.29642      2.44744     -4.41898         0.022792     -0.185237      0.511790
Ti	      4.52395      4.53859     -4.53968        -0.468556     -0.254167      0.019775
O	      2.26592      2.25834     -2.24188         0.493384      0.382626     -0.961020
O	      4.47999      4.54982     -2.21372         0.111708     -0.246793     -0.710896
O	      2.33896      4.42327     -4.51257         1.110873     -1.164580      0.675534
O	      4.48828      2.21867      0.01023        -0.480952     -0.211945     -0.422013
O	      4.54245      0.02132     -2.27571        -0.324319      1.586607      0.178288
O	      2.14308      4.69800      0.00089        -0.821564      0.022070     -0.779140
O	      4.53283      2.25815     -4.56677        -0.896444      0.389815      1.359243
O	      2.21592      6.86301     -2.26939         0.294215     -1.106083      0.570697
