# total energy = -120.29204472 eV
 
CRYSTAL
PRIMVEC
2.006426 4.073058 2.052862 
4.075938 -2.054381 -2.079462 
0.003089 4.080894 -4.123329 
PRIMCOORD
16 1
Li	      5.96859      2.02438     -0.12976         0.263471     -0.011867      0.056399
Li	      1.89730      2.07034     -0.05308        -0.121781     -0.201847      0.132481
Li	      4.09545      1.93107     -2.00917         0.028173     -0.137552     -0.013928
Li	      0.02397      1.97730     -1.93212        -0.203427      0.012259      0.058960
Ti	      3.98376      4.00690     -0.02024         0.602857      0.365504      0.474199
Ti	      1.97492      4.00515     -2.06257        -0.382711     -0.068115     -0.376888
Ti	      3.98583      6.01647     -2.05097         0.119209      0.662693     -0.165040
Ti	      4.02029      4.01600     -4.06089         0.181864      0.653567     -0.418045
O	      1.99265      2.00339     -2.06758        -0.217668     -0.347681      0.281524
O	      4.02522      3.96418     -2.03162         0.685269     -0.521795      0.026703
O	      1.97009      4.05676     -4.09223        -0.494525      0.050929     -0.639507
O	      3.99976      1.99822      0.00473         0.134718     -0.398224      0.078137
O	      3.94658     -0.01360     -1.95194         0.304028     -0.477669     -0.195689
O	      2.04591      4.01545     -0.11037        -0.690422      0.198221      0.938671
O	      3.99269      2.01028     -4.07071         0.165550     -0.505111     -0.306575
O	      2.00279      6.01097     -2.05296        -0.374606      0.726690      0.068599
