# total energy = -120.59620365 eV
 
CRYSTAL
PRIMVEC
2.026796 4.114409 2.073704 
4.117318 -2.075237 -2.100573 
0.003121 4.122325 -4.165191 
PRIMCOORD
16 1
Li	      6.09039      2.06569     -0.13240         0.088989     -0.000412      0.008810
Li	      1.93602      2.11259     -0.05417        -0.046812     -0.069149      0.038188
Li	      4.17903      1.97048     -2.05018         0.013829     -0.039327      0.000137
Li	      0.02446      2.01765     -1.97155        -0.067557      0.004161      0.028305
Ti	      4.06506      4.08867     -0.02065         0.190958      0.097917      0.152401
Ti	      2.01522      4.08688     -2.10466        -0.162772     -0.073881     -0.130616
Ti	      4.06717      6.13926     -2.09283         0.018455      0.199296     -0.048529
Ti	      4.10234      4.09796     -4.14376         0.109176      0.260203     -0.113511
O	      2.03331      2.04428     -2.10977        -0.063715     -0.067691      0.106842
O	      4.10737      4.04508     -2.07308         0.198264     -0.160957     -0.003036
O	      2.01030      4.13954     -4.17575        -0.138900      0.017008     -0.182630
O	      4.08138      2.03900      0.00483         0.031584     -0.145794      0.002184
O	      4.02712     -0.01387     -1.99177         0.036684     -0.144491     -0.020116
O	      2.08766      4.09740     -0.11262        -0.145370      0.051527      0.237462
O	      4.07418      2.05131     -4.15379         0.033279     -0.117725     -0.100515
O	      2.04366      6.13365     -2.09486        -0.096093      0.189311      0.024625
