# total energy = -120.47885863 eV
 
CRYSTAL
PRIMVEC
4.097514 -0.001041 -0.000940 
2.049147 4.068702 -6.216393 
-2.050276 4.110753 2.099663 
PRIMCOORD
16 1
Li	      4.07724      0.09108     -0.05923         0.046919     -0.011720      0.043830
Li	      2.03697      2.04529     -0.02778        -0.002712     -0.054230      0.062835
Li	      4.07695      1.99151     -1.97147         0.055132     -0.040875      0.018489
Li	     -0.00162      6.10627     -1.98679        -0.062833      0.079777     -0.011002
Ti	     -0.00187      4.11313      0.06261        -0.119603      0.013680      0.293302
Ti	      2.03689      4.04728     -2.07351        -0.091606     -0.022017     -0.061682
Ti	      4.07774      4.00874     -4.16793         0.126277      0.004961     -0.307020
Ti	      2.03618      6.09432     -4.10475        -0.020358      0.218119     -0.193999
O	      4.07582      4.05438     -2.05192         0.155630      0.031532      0.001455
O	     -0.00200      2.14571      0.09037        -0.092881     -0.062822      0.076350
O	      2.03756      6.05212     -2.05081        -0.038853      0.141222      0.125940
O	      2.03633      4.10278      0.01674         0.029701      0.025260      0.132631
O	      2.03922      3.99467     -4.18071        -0.103554     -0.182224     -0.168025
O	      4.07516      6.07555     -4.07568         0.113422      0.219546     -0.047026
O	      2.03770      2.03592     -2.06153         0.005845     -0.130682     -0.049596
O	      2.03797      0.01737     -0.01725        -0.000526     -0.229525      0.083519
