# total energy = -92.19792992 eV
 
CRYSTAL
PRIMVEC
2.038642 4.235740 2.038520 
2.038667 -4.235719 2.038543 
4.080990 0.000001 -4.080743 
PRIMCOORD
16 1
Li	      4.07724     -2.11675      2.03869         0.001498      0.001962      0.002145
Li	      4.04824     -4.23117      0.03024         0.007487     -0.000963     -0.005801
Li	      2.06883      0.00135      2.00955        -0.006430      0.001078      0.007841
Li	      2.03863     -2.11522     -0.00062        -0.000445     -0.001412      0.003176
Mn	      2.07883     -4.23380      1.99960         0.024319      0.001792     -0.023669
Mn	      4.03842      0.00173      0.04047        -0.024377     -0.000136      0.023528
Ni	      6.11863     -2.11586     -0.00077        -0.000669     -0.001286     -0.002947
Ni	      4.07987     -2.11584     -2.03956         0.000063     -0.001795     -0.001543
O	      6.11856      0.00186     -0.00088        -0.001862      0.001095      0.000118
O	      4.12095      1.93074     -0.04199        -0.098886     -0.080689      0.098620
O	      4.08001      0.00186     -2.03949        -0.001672      0.001169      0.000473
O	      4.07777      0.00191      2.03922        -0.000611      0.000426      0.000476
O	      4.12103     -1.92764     -0.04202        -0.099344      0.080030      0.099024
O	      6.07733      2.30856     -1.99844         0.101319      0.079757     -0.101727
O	      2.03928      0.00189      0.00049        -0.000865      0.000332      0.001058
O	      6.07745     -2.30453     -1.99839         0.100475     -0.081359     -0.100771
