# total energy = -120.64890368 eV
 
CRYSTAL
PRIMVEC
2.085724 4.121577 2.078460 
4.148426 -2.049799 -2.077383 
0.012553 4.103511 -4.133416 
PRIMCOORD
16 1
Li	      0.07178      0.03616     -0.04770        -0.010491     -0.053411      0.086179
Li	      2.01837      2.10020     -0.02351        -0.047170     -0.003457      0.013216
Li	      4.18666      2.01160     -2.01869         0.000864     -0.065944      0.000048
Li	      2.01889      4.03572     -2.03475        -0.063796     -0.015717     -0.025455
Ti	      4.15969      4.07668     -0.02685         0.160469      0.101224      0.132231
Ti	      6.16381      4.11349     -2.05509         0.311087      0.169805      0.015075
Ti	      4.10582      6.13477     -2.05223         0.031437      0.313316      0.079086
Ti	      4.19481      4.11922     -4.05652         0.165684      0.071974     -0.183245
O	      2.02448      2.00946     -2.08079        -0.120423     -0.112017     -0.028925
O	      4.07575      4.04336     -2.04374        -0.160553     -0.125925      0.026760
O	      2.13905      4.06681     -4.15301        -0.156524      0.007433     -0.098623
O	      4.14719      2.05856      0.00822         0.042615     -0.103493      0.072430
O	      4.10883      0.02152     -2.03360         0.010575     -0.191861     -0.009409
O	      2.15610      4.19716      0.01024        -0.122483      0.039642      0.116158
O	      4.09073      2.04813     -4.10906         0.066154     -0.134888     -0.116676
O	      2.09869      6.15247     -2.04930        -0.107444      0.103317     -0.078849
