# total energy = -120.16133967 eV
 
CRYSTAL
PRIMVEC
2.138129 4.225134 2.130683 
4.252658 -2.101301 -2.129579 
0.012868 4.206614 -4.237270 
PRIMCOORD
16 1
Li	      0.07543      0.03800     -0.05013         0.126606      0.293193     -0.225653
Li	      2.12107      2.20707     -0.02470         0.103793      0.055298     -0.037040
Li	      4.39969      2.11395     -2.12140         0.104122      0.258305      0.040120
Li	      2.12161      4.24107     -2.13828         0.218886      0.040350      0.110821
Ti	      2.23322      0.05899     -2.15890        -0.423290     -0.506793     -0.723215
Ti	      0.08665      2.19897     -2.16077        -1.109910     -0.707012     -0.110946
Ti	      2.17661      2.22179     -4.28734        -0.366457     -0.852517     -0.103040
Ti	      4.40825      4.32882     -4.26292        -0.210215     -0.239082      0.721394
O	      2.12749      2.11170     -2.18667         0.330110      0.137497     -0.113597
O	      4.28314      4.24910     -2.14773         0.350811      0.479777     -0.045089
O	      2.24789      4.27374     -4.36432         0.522038     -0.195000      0.291537
O	      4.35821      2.16330      0.00864        -0.187833      0.362715     -0.148904
O	      4.31790      0.02262     -2.13707        -0.311583      0.665088      0.159201
O	      2.26580      4.41073      0.01077         0.630356      0.370032     -0.432908
O	      4.29888      2.15235     -4.31813        -0.225811      0.246579      0.396716
O	      2.20547      6.46553     -2.15357         0.448378     -0.408430      0.220603
