# total energy = -119.58679862 eV
 
CRYSTAL
PRIMVEC
2.159091 4.266557 2.151572 
4.294351 -2.121902 -2.150457 
0.012994 4.247856 -4.278812 
PRIMCOORD
16 1
Li	      0.07691      0.03875     -0.05112         0.172159      0.453456     -0.326633
Li	      2.16286      2.25056     -0.02519         0.148420      0.067761     -0.045247
Li	      4.48639      2.15561     -2.16320         0.152882      0.376533      0.048064
Li	      2.16342      4.32464     -2.18041         0.299327      0.067531      0.162900
Ti	      2.29839      0.10198     -2.18034        -0.586565     -0.681851     -0.946601
Ti	      0.15163      2.26332     -2.20333        -1.524502     -0.986098     -0.156810
Ti	      2.24067      2.30740     -4.35072        -0.437624     -1.157702     -0.202394
Ti	      4.49512      4.41411     -4.34692        -0.332238     -0.325712      0.916225
O	      2.16941      2.15331     -2.22975         0.479366      0.197381     -0.150276
O	      4.36753      4.33282     -2.19005         0.478564      0.636963     -0.056803
O	      2.29218      4.35795     -4.45032         0.718694     -0.258977      0.426479
O	      4.44408      2.20593      0.00881        -0.266330      0.462733     -0.177296
O	      4.40298      0.02306     -2.17918        -0.409447      0.974477      0.239736
O	      2.31045      4.49764      0.01098         0.818228      0.498046     -0.627956
O	      4.38358      2.19476     -4.40322        -0.281005      0.309819      0.581531
O	      2.24893      6.59293     -2.19600         0.570071     -0.634360      0.315081
