# total energy = -118.84830364 eV
 
CRYSTAL
PRIMVEC
2.180053 4.307980 2.172461 
4.336043 -2.142503 -2.171335 
0.013121 4.289097 -4.320354 
PRIMCOORD
16 1
Li	      0.07841      0.03951     -0.05212         0.214565      0.629549     -0.409066
Li	      2.20506      2.29447     -0.02568         0.194209      0.067274     -0.041705
Li	      4.57392      2.19767     -2.20541         0.204581      0.476763      0.041712
Li	      2.20563      4.40902     -2.22296         0.351115      0.112586      0.214546
Ti	      2.36440      0.14579     -2.20180        -0.769726     -0.736371     -0.999879
Ti	      0.21785      2.32851     -2.24631        -1.855553     -1.195933     -0.168780
Ti	      2.30555      2.39425     -4.41452        -0.293614     -1.270541     -0.302585
Ti	      4.58282      4.50024     -4.43173        -0.563666     -0.515680      0.923714
O	      2.21174      2.19533     -2.27326         0.566410      0.202196     -0.243123
O	      4.45275      4.41736     -2.23278         0.571853      0.702191     -0.106715
O	      2.33691      4.44298     -4.53715         0.874086     -0.272532      0.448322
O	      4.53080      2.24897      0.00898        -0.347027      0.489084     -0.121289
O	      4.48888      0.02351     -2.22170        -0.476028      1.267050      0.344027
O	      2.35553      4.58540      0.01119         0.952443      0.623020     -0.798836
O	      4.46912      2.23758     -4.48913        -0.237433      0.296129      0.766910
O	      2.29281      6.72156     -2.23885         0.613785     -0.874784      0.452748
