# total energy = -118.43656079 eV
 
CRYSTAL
PRIMVEC
2.190534 4.328691 2.182905 
4.356890 -2.152804 -2.181774 
0.013184 4.309718 -4.341125 
PRIMCOORD
16 1
Li	      0.07917      0.03988     -0.05262         0.232495      0.732794     -0.441318
Li	      2.22631      2.31658     -0.02593         0.214429      0.064061     -0.042979
Li	      4.61801      2.21885     -2.22666         0.230427      0.532218      0.044926
Li	      2.22689      4.45152     -2.24439         0.379203      0.131075      0.233745
Ti	      2.39772      0.16801     -2.21252        -0.815028     -0.788818     -1.016506
Ti	      0.25143      2.36141     -2.26796        -1.975728     -1.307914     -0.202637
Ti	      2.33830      2.43813     -4.44657        -0.285623     -1.306963     -0.382830
Ti	      4.62699      4.54361     -4.47445        -0.598568     -0.502110      0.965743
O	      2.23306      2.21649     -2.29517         0.603807      0.180246     -0.282531
O	      4.49567      4.45994     -2.25430         0.599679      0.723049     -0.107593
O	      2.35943      4.48581     -4.58088         0.949512     -0.275862      0.515610
O	      4.57446      2.27065      0.00907        -0.390092      0.472018     -0.139163
O	      4.53215      0.02374     -2.24311        -0.535978      1.396924      0.396133
O	      2.37824      4.62959      0.01130         1.008562      0.700355     -0.886883
O	      4.51219      2.25915     -4.53240        -0.243452      0.259383      0.861026
O	      2.31491      6.78635     -2.26043         0.626356     -1.010458      0.485257
