# total energy = -119.06139940 eV
 
CRYSTAL
PRIMVEC
3.973832 -0.000783 -0.000735 
1.987249 3.954046 -6.154947 
-1.988086 4.022396 2.096656 
PRIMCOORD
16 1
Li	      0.00174      0.07471     -0.01957        -0.156075     -0.325059      0.023285
Li	      1.92850      1.86210      0.03618         0.170218     -0.255390      0.140723
Li	      3.85652      1.89440     -1.81614         0.397084     -0.324863     -0.120128
Li	      3.85619      3.87656     -4.13843         0.396255     -0.265689     -0.311448
Ti	      0.00070      3.89139      0.02809        -0.756276      0.850181      0.892600
Ti	      1.92952      3.84487     -1.99678        -0.933135     -0.069852     -0.209845
Ti	      0.00012      5.82822     -1.92213        -1.441691      1.210644      0.418763
Ti	      1.92881      5.78264     -3.94777        -0.485750      1.353903     -1.097113
O	      3.85643      3.81990     -1.97991         1.143687     -1.022967     -1.215992
O	      0.00146      2.02543      0.11769        -0.494305     -1.725259      0.191366
O	      1.92791      5.85237     -1.94025         0.805395      1.749632      0.968951
O	      1.92815      3.91337     -0.00795         0.708639      0.235488      1.185559
O	      1.92873      3.86829     -3.96668        -0.090563     -0.859188     -1.801583
O	      3.85611      5.75971     -3.91215         1.152477      0.305245     -1.454925
O	      1.92943      1.90338     -1.98627        -0.026866     -1.190507      0.435272
O	      0.00089      3.81268      1.93353        -0.389094      0.333680      1.954515
