# total energy = -120.48063110 eV
 
CRYSTAL
PRIMVEC
4.137701 -0.000815 -0.000765 
2.069198 4.117100 -6.408759 
-2.070069 4.188268 2.183116 
PRIMCOORD
16 1
Li	      0.00189      0.08100     -0.02122         0.066471      0.099399     -0.000687
Li	      2.09084      2.01884      0.03923        -0.020683      0.047199     -0.037763
Li	      4.18113      2.05386     -1.96901        -0.099816      0.084791      0.043809
Li	      4.18078      4.20287     -4.48678        -0.095385      0.047351      0.090689
Ti	      0.00076      4.21895      0.03045         0.118651     -0.032352     -0.213374
Ti	      2.09193      4.16851     -2.16486         0.131643      0.009574     -0.053412
Ti	      0.00014      6.31881     -2.08392         0.349466     -0.251235      0.053371
Ti	      2.09117      6.26939     -4.28007        -0.012865     -0.313822      0.183291
O	      0.04334      4.14225     -2.14580        -0.235583      0.161743      0.268146
O	      0.00158      2.19592      0.12760         0.137978      0.491517      0.016496
O	      2.09019      6.34499     -2.10357        -0.102797     -0.332081     -0.183167
O	      2.09045      4.24278     -0.00862        -0.063967     -0.056810     -0.225794
O	      2.09108      4.19390     -4.30057        -0.010829      0.135279      0.423365
O	      4.18070      6.24453     -4.24145        -0.267375     -0.073261      0.325992
O	      2.09184      2.06360     -2.15346        -0.029871      0.210016     -0.118604
O	      0.00097      4.13361      2.09629         0.134962     -0.227308     -0.572358
