# total energy = -92.01471393 eV
 
CRYSTAL
PRIMVEC
2.038207 4.129808 2.038214 
2.038130 -4.129806 2.038287 
4.209845 0.000005 -4.209700 
PRIMCOORD
16 1
Li	      2.15974      2.06545     -0.11867        -0.016512      0.000501      0.013712
Li	      2.10672      0.00047     -2.10340        -0.001784     -0.000019     -0.002943
Li	      4.14488      0.00042     -0.06598        -0.000286     -0.000459     -0.000432
Li	      4.09166     -2.06467     -2.05067         0.013056     -0.000358     -0.016369
Mn	      0.00198      0.00046      0.00119        -0.012215     -0.000153     -0.003977
Mn	      2.03983      0.00045      2.03901         0.003424     -0.000283      0.011952
Ni	      4.11167      2.06532     -2.07049        -0.000815      0.002893      0.002317
Ni	      2.13987     -2.06445     -0.09879         0.002906     -0.002616     -0.000615
O	      6.34233     -0.04168     -0.22476         0.010270      0.135538     -0.010714
O	      4.14499      2.06536     -0.06551         0.000511     -0.000356      0.000647
O	      4.30423      0.04266     -2.26298         0.007563     -0.136480     -0.008264
O	      3.98539      0.04259      2.13205        -0.006345     -0.135350      0.008332
O	      4.14490     -2.06450     -0.06542         0.000501      0.000023      0.000200
O	      2.04001      2.06527      2.03935         0.001551     -0.000176     -0.000039
O	      1.94714     -0.04179      0.09374        -0.003591      0.137563      0.006401
O	      2.03994     -2.06437      2.03944         0.001767     -0.000269     -0.000207
