# total energy = -117.70213691 eV
 
CRYSTAL
PRIMVEC
1.971231 4.020339 1.971373 
1.954743 0.024787 -5.947603 
-2.021358 4.070028 -2.021402 
PRIMCOORD
16 1
Li	     -1.86886      3.90739     -2.00708        -0.466904      0.124229      0.000419
Li	      0.01776      5.83480     -2.00100        -0.306311      0.493143      0.178128
Li	     -0.10455      3.90665     -3.77654        -0.638933      0.094190     -0.548926
Li	      1.78320      5.83552     -3.76969         0.260749      0.682112     -0.220927
Ti	      1.80859      3.90325     -5.68536         1.070824     -0.517569     -1.995383
Ti	     -0.08614      1.95400     -1.85028        -0.921474     -1.504816     -0.000095
Ti	      1.93980      3.88015     -1.98704         2.024736      0.592956      1.514900
Ti	      1.92229      1.95563     -3.86100         1.559887     -1.423706     -2.111946
O	      1.82555      1.97185     -1.94390         2.288059     -2.522841      1.810384
O	      0.02858      3.86202     -1.89227        -2.177794      1.717946     -0.229339
O	      0.00811      1.93162     -3.76194        -1.594407      0.068094     -2.280196
O	     -0.00644      1.91568     -0.01643        -0.350160     -1.822085      2.501880
O	      1.84612      3.90278     -0.07449         0.823268      0.120939      2.633177
O	     -0.05766      3.89527     -5.73897        -1.165891     -0.098159     -1.039800
O	     -0.02883      5.84649     -0.03868        -0.936757      1.738221      0.756712
O	      1.86038      3.91901     -3.82019         0.531108      2.257344     -0.968988
