# total energy = -120.52969262 eV
 
CRYSTAL
PRIMVEC
2.073900 4.229732 2.074049 
2.056552 0.026078 -6.257374 
-2.126637 4.282008 -2.126683 
PRIMCOORD
16 1
Li	      0.05804      0.04300     -0.09491         0.055549     -0.028899     -0.019501
Li	      0.01966      6.45841     -2.21486         0.060232     -0.077888     -0.046678
Li	     -0.11573      4.32419     -4.18016         0.118367      0.012480      0.100264
Li	      1.97379      6.45921     -4.17259        -0.073852     -0.122823      0.054216
Ti	      2.00189      4.32043     -6.29301        -0.204512      0.246199      0.388487
Ti	     -0.09534      2.16284     -2.04804        -0.005840      0.129931      0.000644
Ti	      2.14713      4.29486     -2.19942        -0.177444      0.057617     -0.303271
Ti	      2.12774      2.16464     -4.27365        -0.075156      0.112540      0.294057
O	      2.02067      2.18261     -2.15166        -0.373363      0.442087     -0.279606
O	      0.03163      4.27479     -2.09451         0.342973     -0.293712      0.122328
O	      0.00898      2.13807     -4.16401         0.234665     -0.114317      0.351755
O	     -0.00712      2.12043     -0.01818         0.074517      0.393834     -0.417329
O	      2.04343      4.31991     -0.08245        -0.161350      0.021977     -0.449700
O	     -0.06382      4.31160     -6.35235         0.065131      0.057139      0.215828
O	     -0.03192      6.47135     -0.04281         0.207017     -0.420589     -0.200413
O	      2.05921      4.33788     -4.22849        -0.086934     -0.415578      0.188919
