# total energy = -116.46584069 eV
 
CRYSTAL
PRIMVEC
3.948949 0.000060 0.000053 
0.000006 3.966352 -3.966794 
0.000114 5.996510 2.030397 
PRIMCOORD
16 1
Li	      0.00186      0.09280     -0.09102        -0.316062     -0.755195      0.122419
Li	      1.88813      1.78152     -0.11537         0.412643     -0.555710      0.351948
Li	      1.88693      5.84333      0.15880         0.405422      0.222257      0.767181
Li	      0.00197      1.80355     -1.80161        -0.433428     -0.237248     -0.537787
Ti	      0.00208      3.81200      0.02100        -1.801581     -0.706158      2.603870
Ti	      1.88751      3.78906     -1.89539         1.581332      0.579185     -0.972783
Ti	      0.00173      5.70567     -1.87266        -1.854579      1.181009     -1.987270
Ti	      1.88796      7.62451     -1.84813         1.396526      2.433406     -0.794003
O	      0.00173      1.97436      0.07796        -0.597294     -3.060831     -0.150781
O	      1.88774      3.81290      0.02221         2.099250     -0.120650      2.516210
O	      0.00190      3.78384     -1.90090        -1.935994     -2.179192     -2.046539
O	      1.88747      5.70649     -1.87192         2.249329      0.984246     -0.217671
O	      0.00167      5.65002     -0.03459        -0.614848      3.145249      2.941334
O	      1.88749      1.95902     -1.95793         0.638335     -3.842965      0.448187
O	      0.00245      7.62795     -1.84493        -1.733117      2.743438      0.409025
O	      1.88737      3.72692     -3.72557         0.504066      0.169159     -3.453341
