# total energy = -119.28872003 eV
 
CRYSTAL
PRIMVEC
4.259075 0.000065 0.000058 
0.000007 4.277846 -4.278322 
0.000123 6.467440 2.189852 
PRIMCOORD
16 1
Li	      0.00216      0.10795     -0.10587         0.123536      0.491260     -0.138567
Li	      2.19634      2.07233     -0.13420        -0.075988      0.229107     -0.073993
Li	      2.19495      6.79716      0.18473        -0.076771     -0.085362     -0.376250
Li	      0.00229      2.09795     -2.09570         0.096761      0.083838      0.166033
Ti	      0.00242      4.43425      0.02443         0.178321      0.328665     -0.605766
Ti	      2.19561      4.40757     -2.20478        -0.090783     -0.347532      0.432394
Ti	      0.00202      6.63703     -2.17834         0.155998     -0.482067      0.249782
Ti	      2.19614      8.86910     -2.14981        -0.145500     -0.940759      0.505025
O	      0.00201      2.29665      0.09069         0.227249      1.243267      0.512963
O	      2.19589      4.43531      0.02584        -0.415716      0.098850     -0.494679
O	      0.00221      4.40150     -2.21119         0.274838      0.675765      0.652583
O	      2.19558      6.63800     -2.17748        -0.368834     -0.360507      0.034305
O	      0.00194      6.57231     -0.04024         0.224324     -1.221656     -1.071544
O	      2.19560      2.27879     -2.27753        -0.210915      1.487520     -0.651169
O	      0.00285      8.87311     -2.14608         0.342225     -1.110410     -0.270105
O	      2.19545      0.05744     -0.05539        -0.238746     -0.089979      1.128986
