# total energy = -119.55428356 eV
 
CRYSTAL
PRIMVEC
2.028709 4.090807 2.028665 
4.063401 -4.104406 0.021019 
4.042332 -0.000057 -4.042141 
PRIMCOORD
16 1
Li	      5.97313     -0.02017      1.93165         0.180402     -0.057852      0.396457
Li	      2.04752      1.97722      0.07794        -0.442515      0.054379      0.309672
Li	      7.84215     -0.02072      0.06362         0.370834      0.034237      0.182085
Li	      3.89748      1.96989      1.92775        -0.152050      0.241500      0.295481
Ti	      7.87516     -2.00030     -1.97698         1.230257     -1.046384     -0.848202
Ti	      3.93985     -0.03928     -0.00167        -0.590580     -0.151813      0.508570
Ti	      4.02535     -1.88599     -1.88562        -0.452239     -0.828980     -0.860791
Ti	      5.90956     -0.03927     -1.97122         0.116801      0.494120     -1.046963
O	      3.98250     -2.00268      0.03675        -0.292240     -1.537614      0.969047
O	      5.88302      0.06316     -0.02802         1.234892     -0.198741      1.235912
O	      2.04343     -0.02361      0.07357        -1.714796     -0.043069     -0.361336
O	      4.01863      1.96042     -0.03073        -0.655745      1.399135      0.873188
O	      5.94780     -2.00279     -1.92851         0.288687     -1.589495     -0.197326
O	      7.87484     -0.03877     -1.97746         1.649533      1.051099      0.386676
O	      3.90364      0.05420     -2.00738        -1.222655      0.954907     -1.196752
O	      5.88024      1.96033     -1.89222         0.451414      1.224571     -0.645717
