# total energy = -120.56886626 eV
 
CRYSTAL
PRIMVEC
2.059920 4.153743 2.059875 
4.125915 -4.167550 0.021342 
4.104522 -0.000058 -4.104328 
PRIMCOORD
16 1
Li	      6.15834     -0.02080      1.99154         0.081256     -0.016293      0.143573
Li	      2.11101      2.03852      0.08036        -0.158558      0.015646      0.116429
Li	      8.08531     -0.02136      0.06559         0.139613      0.015431      0.071953
Li	      4.01833      2.03097      1.98752        -0.057392      0.083900      0.106198
Ti	      8.11934     -2.06233     -2.03827         0.390764     -0.401967     -0.325913
Ti	      4.06201     -0.04049     -0.00173        -0.262441     -0.088270      0.140510
Ti	      4.15016     -1.94447     -1.94409        -0.076667     -0.192143     -0.234470
Ti	      6.09279     -0.04048     -2.03234         0.053999      0.155335     -0.381362
O	      4.10598     -2.06478      0.03789        -0.117482     -0.500135      0.280151
O	      6.06543      0.06512     -0.02889         0.388335     -0.061653      0.397396
O	      2.10679     -0.02434      0.07586        -0.549216      0.000100     -0.098804
O	      4.14323      2.02121     -0.03168        -0.260936      0.475285      0.321903
O	      6.13222     -2.06488     -1.98831         0.092280     -0.520199     -0.070472
O	      8.11900     -0.03997     -2.03877         0.567302      0.358148      0.159311
O	      4.02468      0.05588     -2.06962        -0.409971      0.268905     -0.398278
O	      6.06256      2.02111     -1.95089         0.179116      0.407911     -0.228125
