# total energy = -92.90544055 eV
 
CRYSTAL
PRIMVEC
2.089161 4.144808 2.089494 
2.089332 -4.144777 2.089287 
4.109950 -0.000184 -4.110399 
PRIMCOORD
16 1
Li	      2.07303      2.07288      0.01828        -0.001235      0.001244     -0.001644
Li	      2.14354     -0.00003      2.03598         0.021246      0.000889     -0.022102
Li	      2.07418     -2.07139      0.01924        -0.001630     -0.000664     -0.001896
Li	      4.08828      0.00559      0.09155        -0.019693     -0.001764      0.019279
Mn	      0.02288      0.00055     -0.02217         0.053463     -0.000133     -0.059178
Mn	      2.03355      0.00012     -2.03324        -0.059151      0.002656      0.059365
Ni	      6.21621     -2.07195      0.05111         0.006381      0.005380     -0.000877
Ni	      4.12729     -2.07183     -2.03770         0.004838      0.002232     -0.007456
O	      6.31842      0.00101      0.15285         0.039828     -0.008533      0.039601
O	      4.16735      2.21354      0.01156        -0.105542      0.049470      0.103555
O	      4.02646      0.00084     -2.13990        -0.041688     -0.006167     -0.040737
O	      4.28013      0.00042      2.22450         0.019697      0.000907      0.021485
O	      4.16738     -2.21377      0.01122        -0.104434     -0.048881      0.107777
O	      6.17681      2.21371     -1.99858         0.102047      0.055830     -0.098094
O	      1.95449      0.00026     -0.10119        -0.015898      0.001632     -0.018689
O	      6.17731     -2.21269     -1.99888         0.101769     -0.054098     -0.100389
