# total energy = -118.94398609 eV
 
CRYSTAL
PRIMVEC
2.034922 4.018346 2.035152 
4.022425 -3.992432 -0.004291 
4.026619 -0.000069 -4.026902 
PRIMCOORD
16 1
Li	      5.93106      0.02735      1.91201         0.198900      0.001747      0.671512
Li	      5.81444     -1.92297      0.05380         0.121567     -0.662303      0.334212
Li	      3.88585      1.98841      1.93707        -0.119750      0.439987      0.283898
Li	      3.93581     -1.96014     -1.91929        -0.271199     -0.120514     -0.255309
Ti	      7.83725      0.02618      0.00415         1.486356     -0.286287      0.646225
Ti	      7.83084     -1.92246     -1.96231         1.248592     -1.461254     -0.695707
Ti	      3.93254      0.02261      0.02371        -0.593234      0.093056      0.500818
Ti	      5.84903      0.00499     -1.96561         0.220487      0.444766     -1.352244
O	      3.90335     -1.85506      0.06365        -0.370401     -1.971693     -0.138868
O	      5.88645      0.01991     -0.01018         0.455561      0.049358      1.887659
O	      1.97749      0.00755     -0.01360        -1.888675      0.008521      0.075496
O	      3.91099      1.95366     -0.00330        -0.389560      1.617373      1.181513
O	      5.87625     -1.92592     -1.94408        -0.826047     -1.369527     -0.320867
O	      7.84895      0.05803     -1.93098         1.827779      1.212019     -1.232167
O	      3.89745     -0.03001     -1.97618        -1.600855      0.052345     -1.220841
O	      5.80957      1.88285     -1.93635         0.500477      1.952405     -0.365330
