# total energy = -118.92780439 eV
 
CRYSTAL
PRIMVEC
2.171283 4.287617 2.171528 
4.291969 -4.259967 -0.004578 
4.296444 -0.000073 -4.296746 
PRIMCOORD
16 1
Li	      0.28933      0.00349      0.00989        -0.283828     -0.020260     -0.610306
Li	      2.32784      2.07064      0.06583         0.001862      0.537920     -0.240566
Li	      2.25280     -2.02379      0.03385         0.054959     -0.363279     -0.248307
Li	      4.48096     -2.23165     -2.18513         0.171514     -0.041700      0.217465
Ti	      2.45954      0.00215     -2.16223        -1.488748      0.226031     -0.025698
Ti	      4.62352      2.07123     -2.22954        -0.593350      1.007862     -0.153955
Ti	      4.47724      0.02574      0.02699         0.544431     -0.135358      0.160603
Ti	      6.65919      0.00568     -2.23786        -0.072955     -0.104327      0.751159
O	      4.44400     -2.11200      0.07247         0.414966      1.392172      0.718224
O	      6.70179      0.02267     -0.01159        -0.420124      0.082953     -1.399620
O	      2.25139      0.00860     -0.01548         1.654545      0.037164     -0.019351
O	      4.45270      2.22426     -0.00376         0.515055     -0.843160     -0.953927
O	      6.69017     -2.19268     -2.21336         0.490654      0.418930      0.251918
O	      8.93611      0.06607     -2.19844        -1.252598     -0.846332      0.411095
O	      4.43729     -0.03417     -2.24991         0.999347      0.122747      0.856795
O	      6.61426      2.14365     -2.20456        -0.735728     -1.471365      0.284470
