# total energy = -91.73166170 eV
 
CRYSTAL
PRIMVEC
0.000000 2.060343 2.060477 
8.186496 -0.009294 0.009238 
-0.009745 4.253863 -4.254019 
PRIMCOORD
16 1
Li	      4.10003      4.24555     -0.12720        -0.020236      0.041926     -0.040835
Li	      4.06504      6.23631     -2.11744        -0.041851     -0.046652      0.045150
Li	      8.13941      2.15782     -2.15587         0.014128      0.008739     -0.012567
Li	      2.22112      4.17123     -2.10956         0.024286     -0.012077      0.010909
Mn	      8.17458      6.30029     -2.18215         0.040243     -0.015399      0.016064
Mn	      2.14308      2.11355     -0.05554         0.091621     -0.015677      0.015623
Ni	      6.01721      4.16565     -2.10752        -0.015443      0.011904     -0.012949
Ni	      5.99358      2.13068     -0.07258         0.001579     -0.013846      0.014392
O	      6.19711      4.15271     -0.03415         0.022855      0.012455     -0.012553
O	      0.02313      4.34943     -2.29162         0.047241      0.043583     -0.043941
O	      6.27323      2.07965      2.03859         0.113151     -0.014393      0.016979
O	      0.06559      1.98500      0.07272         0.057968     -0.020009      0.020362
O	      1.98542      4.03354      0.08490         0.009169     -0.038911      0.038649
O	      4.07971      4.22461     -2.16654        -0.101047     -0.001655      0.001911
O	      1.95622      2.17702      1.94117        -0.036217      0.050128     -0.048825
O	      3.95836      2.06911     -0.01100        -0.207447      0.009885     -0.008370
