# total energy = -119.49925580 eV
 
CRYSTAL
PRIMVEC
2.134743 4.321641 2.135277 
4.254577 -4.293861 -0.041095 
4.295093 -0.000570 -4.295076 
PRIMCOORD
16 1
Li	      0.11756     -0.04407      0.00363         0.459423      0.022471     -0.269266
Li	      2.20743      2.18160      0.11281         0.439993     -0.104264     -0.239364
Li	      2.26173     -2.03700     -0.09099        -0.237604     -0.090397      0.205819
Li	      6.60221      0.05773     -2.35963         0.005485     -0.164526      0.054203
Ti	      2.36013     -0.00135     -2.19403        -1.173427      0.107877      0.289217
Ti	      4.49926      2.09469     -2.26193        -0.832928      0.621222      0.466476
Ti	      4.43902      0.01576      0.01386         0.137963      0.458735     -0.171398
Ti	      4.44317     -2.21006     -2.18919         0.137281      0.177503      0.202944
O	      4.41383     -2.20676     -0.04214         0.287322      1.018037     -0.399002
O	      6.58619      0.01879     -0.01568        -0.331962      0.571985     -0.481393
O	      2.31209      0.00691     -0.13058         1.595611      0.047994     -0.666001
O	      4.38598      2.23260     -0.00449         0.829403     -0.680620     -0.711154
O	      6.60669     -2.20236     -2.27374        -0.095789     -0.359455      0.121374
O	      8.77902      0.02331     -2.24728        -0.674904     -0.739784      0.196968
O	      4.42443      0.00689     -2.24243         0.224122     -0.153383      0.728226
O	      6.49818      2.23211     -2.11670        -0.769988     -0.733394      0.672353
