# total energy = -120.47784465 eV
 
CRYSTAL
PRIMVEC
4.174382 -0.014918 4.228175 
-0.015238 4.173918 -4.227861 
-0.015451 4.174772 4.228690 
PRIMCOORD
16 1
Li	      0.00601      0.00384      0.00272         0.011884      0.176345      0.062644
Li	      2.09752      2.10625      0.00037         0.002023     -0.042634      0.022161
Li	      2.11132      0.03101      2.17730        -0.044836     -0.001068     -0.139779
Li	      2.09222      4.21091      2.13312         0.026579      0.054572      0.010890
Ti	     -0.00695      2.14902     -2.09622         0.215914     -0.091610      0.169553
Ti	     -0.00593      2.14886      2.09685         0.048639     -0.178420      0.111424
Ti	      2.09854      2.14285      4.22923         0.109867      0.014917      0.304645
Ti	      0.02448      4.21864      0.04028        -0.234200     -0.103716     -0.109109
O	      0.02623      2.07477     -0.00031         0.068077      0.418550      0.094969
O	     -0.01427      4.21578     -2.12807         0.016101      0.083117      0.686745
O	      2.10140      2.10196      2.14387        -0.091520      0.200100      0.061326
O	      2.00391      4.29650      0.00139        -0.398427      0.270650      0.143432
O	      0.02563      4.21615      2.16897        -0.094021      0.057844     -0.628318
O	     -0.01840      6.36201      0.04283        -0.023795     -0.492037     -0.330265
O	      2.17947      4.12198      4.27134         0.468219     -0.244705     -0.178327
O	      2.08597      6.31639      2.12825        -0.080503     -0.121905     -0.281990
