# total energy = -228.64781670 eV
 
CRYSTAL
PRIMVEC
0.000015 8.306832 8.305839 
8.306480 -0.000788 8.306643 
4.153098 4.153274 4.153068 
PRIMCOORD
32 1
Li	      8.34203      8.34256     16.57743         0.002441      0.002389     -0.006945
Li	      2.24442      8.30681     10.38334         0.017879     -0.000302     -0.001562
Li	      8.27107      4.11755      8.27168        -0.005296     -0.004137     -0.005667
Li	      6.22953      2.24381      8.30701        -0.000032      0.019925     -0.001428
Li	     12.42404      8.34147     16.64792        -0.006098      0.003673      0.006259
Li	      8.34127      8.27123     12.49510         0.003527     -0.000759      0.007034
Li	     10.21538      8.30608     14.53590        -0.018975      0.002275      0.001976
Li	      8.30555      6.22957     14.36825         0.000553     -0.000727     -0.017914
Li	      8.30572     10.38356     14.70339         0.000459     -0.001919      0.017812
Li	     10.38201     10.21544     16.61365         0.001403     -0.018572     -0.004175
Ti	      6.35204      8.30581     14.53708         0.397926      0.007847     -0.006245
Ti	      8.30594      2.07559     10.26069         0.000037      0.005505     -0.395607
Ti	      6.23002      6.10767      8.30695        -0.005546     -0.404685     -0.005514
Ti	      8.30607      6.23074     10.50609        -0.005881     -0.006009      0.399305
Ti	      6.10626      8.30650     10.38234        -0.404249      0.003222      0.006811
Ti	      2.07549      6.35316      8.30634         0.006819      0.396240      0.000825
O	     10.33918      2.11911     10.42601        -0.029491      0.031616      0.038455
O	      4.15178      2.07700      4.23824         0.005511     -0.000756      0.031594
O	      6.18494      2.03274      6.18695        -0.022634     -0.028577     -0.031813
O	      8.30522      2.07633      8.43149         0.003169     -0.001972      0.386701
O	      2.07608      4.06999      4.15370        -0.000610     -0.039946     -0.000894
O	      4.06815      4.15289      6.23021        -0.030908      0.003660     -0.002839
O	      6.22986      4.27856      8.30661        -0.003290      0.382327     -0.000069
O	      8.39107      4.15255     10.38346         0.029462      0.001777      0.000732
O	      2.11949      6.18672      6.27334         0.026547     -0.028569      0.029527
O	      4.15249      6.23053      8.22183         0.001200     -0.002121     -0.034648
O	      6.27201      6.27321     10.33984         0.032743      0.030799     -0.030704
O	      8.30583      6.23004     12.33480        -0.000887      0.000665     -0.377643
O	      2.07590      8.18220      8.30652        -0.001449     -0.386378     -0.000335
O	      4.27709      8.30687     10.38250         0.389185     -0.000255      0.002074
O	      6.22865      8.39154     12.45898         0.004232      0.034153      0.003288
O	      8.18115      8.30639     14.53716        -0.387747     -0.000389     -0.008390
