# total energy = -102.43585998 eV
 
CRYSTAL
PRIMVEC
0.000051 2.095623 2.095422 
14.725150 -0.104735 14.773026 
6.286685 2.056603 4.230011 
PRIMCOORD
14 1
Li	     14.70918     -0.05853     14.72803        -0.020382     -0.001704     -0.000925
Li	     10.50800      4.07013     10.59839         0.025326     -0.003341      0.002791
Li	      8.63121      2.00094     10.57314         0.010593      0.004324     -0.002954
Li	     16.58835      2.01085     14.75464        -0.007083     -0.000185     -0.002150
Ti	      8.39011      2.03875      6.34353        -0.000357      0.007506     -0.008916
Ti	     12.46582      1.96210     10.60989        -0.335885      0.012021     -0.009693
Ti	     12.75474      2.04957     14.71501         0.285651     -0.006024      0.009883
O	     16.87606      1.91489     16.94319         0.005602     -0.062148      0.061638
O	      4.12669      2.13374      4.15421        -0.051604      0.048697     -0.043934
O	      6.36692      1.98324      6.39751         0.056361     -0.049753      0.042758
O	      8.34281      2.09740      8.38150        -0.006296      0.052317     -0.053456
O	     10.62009      2.00654     10.56647         0.335027     -0.008993      0.013378
O	     12.60977      2.00588     12.66258         0.001692     -0.000936     -0.000386
O	     14.59783      2.00545     14.75910        -0.298644      0.008219     -0.008033
