# total energy = -150.59146071 eV
 
CRYSTAL
PRIMVEC
-0.007378 4.156904 4.250839 
10.395759 2.193291 12.620421 
6.241419 4.181771 6.340709 
PRIMCOORD
20 1
Li	     10.38844      6.34931     16.86783        -0.000035      0.006179      0.003610
Li	      8.31175      8.25076     12.68206         0.013653      0.020021      0.000731
Li	     10.39150      8.22060     14.73064        -0.009553      0.002639     -0.008221
Li	      6.24089      2.31235      8.48280         0.010090     -0.000978      0.011896
Li	      8.31845      2.27509     10.53106        -0.013195     -0.020368     -0.002505
Ti	     12.41506      8.40900     16.89304        -0.058618     -0.018500     -0.077593
Ti	     14.59456      8.34336     19.03862         0.070582     -0.007640     -0.019833
Ti	      0.00162      2.07792      2.12763        -0.021217     -0.009504     -0.018087
Ti	      2.03182      2.18543      4.17228        -0.037788      0.008952      0.036385
Ti	      4.21606      2.12022      6.32205         0.039433      0.007088      0.069906
O	     12.49603      4.26558     14.73139         0.010938      0.021776     -0.004431
O	      4.13739      6.26315      8.48134        -0.012319     -0.018569      0.013713
O	      6.26149      6.35318     10.59866         0.031832      0.014748      0.042574
O	      8.36860      6.23560     12.56894        -0.016677      0.009187      0.019265
O	     10.38614      6.26213     14.64416        -0.003288     -0.072679     -0.089356
O	     12.47215      6.33943     16.84699         0.002402     -0.045528      0.026441
O	      4.15788      4.19024      6.36682        -0.004446      0.043918     -0.029750
O	      6.24488      4.26808      8.57208         0.008644      0.079776      0.078446
O	      8.26257      4.29402     10.64489         0.015720     -0.015477     -0.026591
O	     10.36620      4.17659     12.61519        -0.026158     -0.005039     -0.026599
