# total energy = -92.18015488 eV
 
CRYSTAL
PRIMVEC
0.000019 2.064855 2.064734 
8.216287 -0.008479 0.008569 
-0.008449 4.254765 -4.254665 
PRIMCOORD
16 1
Li	      4.22091      4.24375     -0.11580         0.004302     -0.003811      0.003444
Li	      6.06759      2.20960     -0.14640        -0.001354      0.009699     -0.010481
Li	      8.09535      4.18914     -0.06262         0.018084     -0.009332      0.009725
Li	      2.17634      4.13521     -2.07143         0.000174     -0.017311      0.016989
Mn	      8.15864      6.30058     -2.17251        -0.024770      0.012353     -0.013457
Mn	      2.09016      2.11906     -0.05621         0.007485      0.032936     -0.032249
Ni	      6.10859      4.13627     -2.07317         0.042271      0.003908     -0.003556
Ni	      4.14704      6.28325     -2.15538         0.024359      0.041867     -0.041027
O	      6.20383      4.20729     -0.07939         0.005111     -0.131013      0.129557
O	      0.07880      4.36574     -2.30253         0.062497      0.029080     -0.028992
O	      6.27856      6.26382     -2.13585         0.130150      0.084566     -0.084652
O	      0.07465      1.97123      0.09184         0.012322     -0.029314      0.029978
O	      1.97996      4.04712      0.08052         0.009759     -0.023382      0.023292
O	      4.08975      4.28471     -2.22167        -0.136095     -0.111140      0.112844
O	      1.97453      2.19074      1.93703        -0.067317      0.014703     -0.014774
O	      3.94862      2.04045      0.02248        -0.086979      0.096191     -0.096640
