# total energy = -198.45160576 eV
 
CRYSTAL
PRIMVEC
-0.000070 2.058696 2.056869 
26.929427 -0.194311 26.932629 
14.541182 2.024506 12.374805 
PRIMCOORD
26 1
Li	     26.89431     -0.13731     26.87566         0.019415      0.010059     -0.010808
Li	      1.97640      0.10931      1.94627         0.011720      0.014590     -0.014586
Li	     33.27891      3.82465     33.20259        -0.002648     -0.017468      0.018824
Li	     35.29034      3.87668     35.20733        -0.029579     -0.008162      0.007325
Li	     37.34600      3.89947     37.24081        -0.005779      0.002437     -0.001277
Li	     24.83455     -0.15978     24.84066         0.013234     -0.005480      0.004474
Ti	     18.60837      1.95570     16.52724        -0.058389     -0.003864      0.011029
Ti	     20.70004      1.95341     18.62172        -0.083882      0.003109     -0.020667
Ti	     22.88335      3.96084     22.78662         0.039312     -0.020910      0.004165
Ti	     24.90423      4.00373     24.79530         0.018876     -0.013962      0.012775
Ti	     12.36636     -0.02415     12.35997        -0.055607      0.029954     -0.017574
Ti	     14.54692      1.98447     16.52320         0.076165      0.003147      0.016773
Ti	     16.65112      1.97604     18.62456         0.051536      0.002162     -0.007423
O	     29.07229      1.95267     28.89816         0.024026      0.030216     -0.043205
O	     31.08999      1.86983     31.04144         0.002529     -0.006299      0.003413
O	     33.11747      1.79077     33.17994        -0.021100     -0.036704      0.041585
O	      8.21251      1.94822      8.33869        -0.062157     -0.021703      0.038249
O	     10.35603      1.99533     10.34359        -0.079936     -0.017570      0.031235
O	     12.46494      2.01778     12.37566        -0.033979     -0.037188      0.039797
O	     14.46238      1.98486     14.46757        -0.029521     -0.016920      0.032116
O	     16.54293      2.05262     16.47779        -0.078983     -0.002408     -0.009089
O	     18.70878      1.87731     18.67592         0.078371      0.008158      0.001426
O	     20.79661      1.94957     20.67950         0.031451      0.026709     -0.035231
O	     22.79701      1.91861     22.77065         0.013106      0.037093     -0.035188
O	     24.88456      1.93427     24.80970         0.087354      0.028900     -0.040432
O	     27.04328      1.98638     26.81020         0.074466      0.012104     -0.027705
