# total energy = -174.90818909 eV
 
CRYSTAL
PRIMVEC
-0.030533 6.264622 6.247591 
4.130587 2.096066 6.219555 
6.213610 8.351447 6.218537 
PRIMCOORD
24 1
Li	      0.07189      6.31021      6.27041         0.057347      0.004634     -0.008858
Li	      6.13304     10.35893     12.52748        -0.012494     -0.024590      0.031466
Li	      8.19414     14.59056     14.52184        -0.009410      0.003350      0.016193
Li	      4.12218      8.37514      8.31909        -0.025509     -0.000912     -0.005772
Li	      6.27339      6.35350      8.32357         0.024318      0.046731     -0.000060
Li	      4.10607     10.41483     10.33104        -0.000250      0.000413     -0.018166
Li	      6.16287      8.34350     10.34683         0.003654      0.002121     -0.011247
Ti	      6.17343     10.29725      8.28460         0.004627     -0.363398     -0.017228
Ti	      2.09562      2.06914      4.12685         0.073242     -0.021424     -0.032411
Ti	      4.12892      6.30786     10.34879        -0.010256      0.069125      0.006558
Ti	      8.20931     12.52420     12.44718        -0.052157      0.002217      0.019110
Ti	      4.14596      6.33225      6.25792        -0.023620      0.065691     -0.017036
O	      1.92617      8.36026      8.41831        -0.051525     -0.009518      0.074856
O	      8.32603     12.53547     14.45966         0.097428      0.011655     -0.056951
O	      4.04071      8.28988     10.40718        -0.120667     -0.099095     -0.015722
O	      6.23391     10.50687     10.31757         0.056276      0.052382     -0.042543
O	      2.05302      4.13857      4.16585        -0.046696     -0.035344      0.017411
O	      8.32875      8.38547     10.41811         0.049293      0.045417     -0.014031
O	      4.09044      4.24342      6.28329        -0.030834     -0.000948      0.067708
O	      6.17502     12.54007     12.43311        -0.008144     -0.007281     -0.002577
O	      2.15851      6.17049      6.20733         0.051461     -0.063776      0.013736
O	      8.22105     10.46483     12.42586         0.010692      0.019681     -0.020787
O	      4.12894      6.24198      8.31734        -0.017288     -0.042714      0.021401
O	      6.20085      8.46515      8.29609        -0.019489      0.345584     -0.005050
