# total energy = -175.11697050 eV
 
CRYSTAL
PRIMVEC
0.000010 4.168782 4.168954 
12.147027 2.009391 14.666267 
4.048997 4.168762 4.168974 
PRIMCOORD
24 1
Li	      4.04857      4.17757      4.25334        -0.002521      0.025834     -0.024452
Li	      8.09734      8.29786     12.53496        -0.001839     -0.019134      0.010183
Li	      6.07450      4.21130     10.37756         0.002470      0.012087     -0.008000
Li	     14.17237      8.23949     18.85889        -0.000485      0.002479     -0.002161
Li	      4.04855      6.17060      6.24430        -0.001805      0.023885     -0.019551
Li	      8.09709      6.22783     10.46358         0.000455     -0.011896      0.020673
Li	      6.07362      2.12272      8.29793         0.002025      0.029485     -0.025345
Ti	      2.02428      4.17103      6.25327         0.006475     -0.020429      0.024372
Ti	     12.14728      8.29881     16.74385         0.001023     -0.039110     -0.046251
Ti	      6.04710      6.23744      8.35584        -0.061904     -0.080476      0.078735
Ti	     12.14735      6.18571     14.63148         0.001746      0.045402      0.031669
Ti	     14.17219      6.16454     16.76534        -0.005619      0.110172     -0.099101
O	      2.02692      2.07487      2.11278        -0.002392     -0.047634      0.064235
O	      4.05973      6.25096      8.34220         0.049452     -0.004337      0.003531
O	      6.07589      6.33658     10.35581        -0.003886      0.066841     -0.125348
O	      8.09828      6.10455     12.65634         0.004266     -0.044942      0.047190
O	     10.12340      6.20341     14.68451        -0.004576     -0.025685      0.025607
O	     12.14724      6.16399     16.76707         0.010039     -0.027515      0.017182
O	      2.02670      4.14226      4.18023        -0.000798     -0.066356      0.044086
O	      4.05122      4.18120      6.24302         0.001845     -0.007963      0.003939
O	      6.07539      4.23721      8.25696         0.000075      0.125465     -0.075901
O	      8.09853      3.99302     10.59862         0.002109     -0.110118      0.114436
O	     10.12305      4.07654     12.55826        -0.000041     -0.020354      0.015646
O	     12.14745      4.20119     14.55950         0.003886      0.084299     -0.075373
