# total energy = -228.70951764 eV
 
CRYSTAL
PRIMVEC
0.017037 6.225024 6.285602 
10.432466 -0.002163 10.507005 
10.432509 4.148759 10.506045 
PRIMCOORD
30 1
Li	      0.14900      6.22462      6.41799         0.011133      0.001133     -0.001449
Li	     12.45671      4.14816     12.54806         0.034796     -0.000266     -0.011963
Li	      4.23088      6.22438     10.45286        -0.023925      0.000214     -0.002418
Li	     10.61172      2.07220     12.44668         0.001358      0.000999     -0.025793
Li	     16.61809      6.22241     19.11629        -0.030092     -0.000474      0.003639
Li	     12.44318      8.29878     16.84099         0.018467     -0.000682     -0.005638
Li	     16.57405      8.29729     20.92213        -0.012661      0.000358     -0.001773
Ti	      6.36532      6.22404     12.59084        -0.103554     -0.001598     -0.029319
Ti	      8.33618      6.22254     14.64176         0.002722      0.008953      0.133549
Ti	     12.50943      6.22303     14.69100        -0.122481      0.002164     -0.069261
Ti	     14.58992      6.22400     16.81835        -0.099457     -0.000749      0.250755
Ti	     18.74344      6.22225     21.10291         0.017934     -0.006303     -0.097956
Ti	     10.47420      4.14813     14.69000         0.241109     -0.004278      0.104222
Ti	      4.18535      4.14908      8.33645        -0.025679     -0.002523     -0.164889
Ti	     18.76106      8.29669     23.07655         0.021017     -0.000787     -0.086879
O	     12.62908      8.29758     18.96384         0.076866     -0.000441      0.103375
O	     14.54080      2.07279     14.69663        -0.068009     -0.000566      0.026412
O	      6.23733      2.07436      6.30266         0.046255      0.001410     -0.011795
O	      8.27426      2.07322      8.42870         0.034254      0.010971     -0.131805
O	     10.36107      8.29808     16.67937        -0.091129      0.002885     -0.100558
O	     12.49601      4.14793     14.69904        -0.033780      0.000726     -0.015277
O	     14.62299      4.14840     16.76086         0.036613     -0.003252     -0.057836
O	      6.23529      4.14880      8.39422         0.001492      0.001342     -0.008689
O	      8.34128      4.14856     10.48819         0.013853     -0.012106      0.172145
O	     10.36803      4.14768     12.69539        -0.180673      0.001328      0.099668
O	     12.61388      6.22374     16.71815         0.130841     -0.002675     -0.112399
O	     14.63984      6.22230     18.88105        -0.001299      0.001078     -0.005104
O	      6.32638      6.22414     10.56615         0.112898      0.000011      0.059190
O	      8.52177      6.22361     12.60743        -0.041659      0.001463     -0.049575
O	     10.43611      6.22308     14.71157         0.032787      0.001666      0.037421
