# total energy = -205.16499163 eV
 
CRYSTAL
PRIMVEC
-0.101775 14.646425 14.495101 
4.098595 4.180062 8.258567 
4.057532 12.542106 12.407401 
PRIMCOORD
28 1
Li	      0.05875      2.16724      2.17678         0.021894      0.009839      0.010315
Li	      6.04119     14.65164     16.51665         0.003832      0.006587     -0.011906
Li	      4.15216      8.33799     12.33349         0.016431     -0.000087      0.000738
Li	      1.99132      4.16830      6.09794         0.002224     -0.018282      0.004372
Li	      4.04857     12.61757     16.47482         0.009359     -0.005089     -0.006877
Li	      2.04049      8.43571     10.37677        -0.017353      0.000683      0.001406
Li	      6.00781     22.86280     24.85250        -0.000900     -0.008189      0.007804
Li	      6.03779     25.00140     26.98144        -0.006188     -0.003955     -0.003464
Ti	      8.02698     16.79637     20.66105        -0.049306      0.004854      0.017530
Ti	      2.00599     14.79410     16.51747         0.040125      0.452720     -0.010356
Ti	      3.89874     18.76373     18.57222        -0.377592     -0.002260     -0.042594
Ti	      2.08288      6.25604      8.30864         0.003874     -0.022362      0.035692
Ti	      4.05981     22.96880     22.80232         0.066413     -0.052051      0.058791
Ti	      8.04729     29.30567     33.11794         0.000688     -0.038336      0.032011
O	      1.94977     16.61052     16.55964         0.016539     -0.440176     -0.016750
O	      4.04777     16.70834     18.66544         0.003310     -0.019629      0.021221
O	      2.06039     18.80647     18.61831         0.339918      0.003000     -0.003963
O	      4.00506     18.87114     20.69322        -0.019778     -0.001635      0.006763
O	      1.95217      6.32767      6.30879        -0.016313      0.027467      0.053946
O	      4.02365     20.94404     22.77438        -0.027031      0.020697     -0.017267
O	      6.17457     12.50033     16.44011         0.018938     -0.027895     -0.048919
O	      3.97148     23.06867     24.74161         0.013563      0.036290     -0.119667
O	      2.01503     10.45807     10.34804        -0.021523     -0.009368      0.002246
O	      4.06339     10.47584     12.40991        -0.007126     -0.007160      0.024366
O	      1.92936     12.55538     12.43756         0.031818      0.070065     -0.003010
O	      4.11312     12.47626     14.41842         0.026963     -0.001829     -0.039533
O	      1.91619     14.62346     14.48372         0.020437      0.021422      0.002504
O	      3.95594     14.62564     16.61863        -0.093213      0.004677      0.044603
