# total energy = -223.59468228 eV
 
CRYSTAL
PRIMVEC
0.064644 10.404031 10.439150 
6.236129 4.194277 10.445122 
4.139846 2.093375 2.101026 
PRIMCOORD
30 1
Li	      6.29897      4.22660     10.44824         0.023978     -0.011230     -0.011439
Li	      2.05609     10.48780     12.49228        -0.000505      0.000257     -0.002254
Li	      6.37038      6.16502     12.40757        -0.001658     -0.043022     -0.046121
Li	      8.36582     14.57290     18.82045         0.011085      0.016673      0.006180
Li	      8.22133      6.20915     10.54455        -0.022728     -0.004510      0.011839
Li	      4.06838      8.38498      8.42122        -0.010400      0.009313      0.009390
Li	      6.28141      8.33326     10.49090         0.007360     -0.005494     -0.002000
Li	      2.10973      8.41809     10.32322        -0.005283      0.008629     -0.021442
Ti	      4.27129     10.42700     14.64376         0.043414      0.099508      0.055844
Ti	      2.03096      2.14498      4.14741        -0.005581      0.009305     -0.033215
Ti	      0.11788      4.15670      4.19387        -0.054690      0.006769      0.047876
Ti	      2.07937      4.17887      6.24550         0.067363     -0.036292      0.058522
Ti	      8.28435      8.37060     12.59086         0.058661     -0.030347     -0.023821
Ti	      4.08793     10.41458     10.52006        -0.365000      0.038608      0.014271
Ti	      8.31109     10.36934     14.62581        -0.049484     -0.034815     -0.012208
O	      8.27621      6.35469     12.60459         0.009239      0.050005      0.052937
O	      4.13951     12.37695     14.59283        -0.032726     -0.078175      0.012972
O	      6.35448     12.58006     16.79128         0.045047      0.001402     -0.009773
O	      2.27840      4.14686      4.18223        -0.021662     -0.013480     -0.042340
O	      4.15458      4.19015      6.28419         0.002860      0.013745      0.000760
O	      6.23145      4.16486      8.33085        -0.000525      0.021981      0.006907
O	      8.33020     10.44404     16.71597         0.025798      0.000990      0.016653
O	      4.19755      6.26962      8.38767         0.013928     -0.003515     -0.026675
O	      6.14685      6.27502     10.34544        -0.040978      0.019107     -0.029480
O	      8.26950     12.50157     18.67295        -0.003797     -0.004643     -0.101512
O	      4.14907      8.37626     10.45932         0.019105     -0.012679      0.017914
O	      6.22593      8.37163     12.56907         0.026736      0.001961      0.025075
O	      2.25658     10.41618     10.45334         0.306707      0.001978      0.008272
O	      4.22167     10.37050     12.53658        -0.012835     -0.010165      0.010082
O	      6.27043     10.43549     14.65493        -0.033427     -0.011863      0.006785
