# total energy = -199.47380523 eV
 
CRYSTAL
PRIMVEC
0.000462 2.077489 2.076161 
14.150587 -0.147146 14.683511 
16.181549 4.081168 12.534465 
PRIMCOORD
28 1
Li	     14.13535     -0.10560     14.63950         0.001780      0.005893     -0.003678
Li	     16.15869      1.91846     14.69510        -0.009065     -0.013762      0.013488
Li	     18.15530      1.98861     16.70135        -0.029282      0.001517     -0.001578
Li	     20.19296      3.99076     16.77808        -0.029614     -0.001199      0.000369
Li	     22.24806      6.09334     20.90341         0.000022      0.001179     -0.001243
Li	      8.12059      2.03831     10.41818         0.026557      0.004094     -0.004842
Li	     10.15820      4.04053     10.49489         0.023523     -0.003836      0.003432
Li	     12.15451      4.11072     12.50194         0.011609      0.010945     -0.013842
Li	     28.32933      5.98661     27.24033        -0.000109     -0.005171      0.005839
Ti	     18.10525      4.05548     14.63439        -0.105650      0.019856     -0.017112
Ti	     20.07015      1.93123     18.83366        -0.289717      0.049090     -0.046088
Ti	     22.39457      3.94998     23.04559         0.263892     -0.056009      0.058460
Ti	     10.20780      1.97248     12.56196         0.113717     -0.015917      0.016490
Ti	     14.15673      4.05283     14.63614         0.004787     -0.002819      0.004577
O	     16.16488      1.81302     16.87461        -0.010017     -0.076218      0.078194
O	     18.18911      4.14250     16.62606        -0.001665      0.053563     -0.057824
O	      4.05279      2.04678      4.18212         0.245298     -0.017016      0.014826
O	     20.22354      3.91272     18.92886         0.002712     -0.094059      0.091508
O	      6.11385      2.11695      6.19008         0.022002      0.036354     -0.034390
O	     22.20001      3.91152     21.00629        -0.018153     -0.035368      0.035665
O	      8.09004      2.11577      8.26798        -0.002175      0.098021     -0.100564
O	     24.25994      3.98174     23.01477        -0.229717      0.017909     -0.018026
O	     10.12442      1.88630     10.57084        -0.002227     -0.053892      0.057140
O	     26.29938      4.06832     25.00614         0.007220      0.077514     -0.080362
O	     12.13305      1.97307     12.56235        -0.051275      0.007345     -0.008835
O	     14.15860      3.96456     12.64732         0.003763     -0.092543      0.095722
O	     14.15535      2.06380     14.54965         0.002789      0.093365     -0.096047
O	     16.18128      4.05556     14.63469         0.048994     -0.008837      0.008721
