# total energy = -198.87709620 eV
 
CRYSTAL
PRIMVEC
-0.000273 14.057668 15.700232 
4.013195 10.041094 15.700290 
4.013176 14.057648 15.700182 
PRIMCOORD
28 1
Li	      4.01306     24.09659     31.20507         0.000340      0.001868      0.000083
Li	      4.01347     12.04638     17.92281         0.000538      0.003397     -0.011969
Li	      6.01942     30.12144     36.06962         0.000862      0.001035     -0.038042
Li	      6.01924     32.13054     38.31279         0.000607      0.002113     -0.053448
Li	      4.01320     16.06455     22.35111        -0.001266     -0.001180     -0.049785
Li	      4.01280     22.08984     24.85155        -0.000480      0.001624     -0.019522
Li	      2.00615      8.03263     11.05220         0.000387     -0.002684      0.034915
Li	      2.00648     10.04040     13.34218         0.000503     -0.000774      0.056274
Li	      4.01314     22.09003     29.11753        -0.000354     -0.001325      0.046400
Ti	      6.02004     28.11292     33.64231        -0.001411      0.000168     -0.034997
Ti	      4.01316     18.07194     20.32697        -0.000295      0.001083      0.468710
Ti	      2.00624      6.02473      8.82492         0.000587     -0.004475     -0.558479
Ti	      4.01269     24.09824     27.06477         0.000688     -0.000146      0.545650
Ti	      2.00704     12.04753     15.55417        -0.001701     -0.000235     -0.468086
O	      6.01995     26.10483     33.50849        -0.000832      0.000001      0.117020
O	      4.01319     16.06383     20.20793        -0.000640      0.001878     -0.150126
O	      6.01958     28.11324     35.69127         0.001147     -0.000848     -0.104536
O	      4.01304     18.07246     22.12283        -0.000599      0.000928     -0.706646
O	      2.00609     20.08122     22.71472         0.001115      0.000362      0.274293
O	      4.01284     20.08170     24.83385        -0.001250      0.000554     -0.051978
O	      6.01936     18.07336     24.66576         0.001147     -0.002647     -0.047751
O	      4.01278     22.09003     26.91888        -0.001037     -0.002372      0.031792
O	      6.01938     20.08153     26.79332         0.001584      0.001835      0.033766
O	      4.01303     24.09796     28.87897        -0.000958     -0.000371     -0.215186
O	      2.00661     12.04844     13.75858        -0.000124     -0.001620      0.729045
O	      4.01293     26.10499     31.39871        -0.000063      0.000921      0.157430
O	      2.00630     14.05573     15.88277         0.002258     -0.001136      0.106295
O	      4.01343     14.05524     18.07860        -0.000753      0.002049     -0.091121
