# total energy = -217.44181972 eV
 
CRYSTAL
PRIMVEC
-0.031522 6.165917 6.254034 
10.265451 4.071243 14.579288 
6.155797 6.152444 8.320459 
PRIMCOORD
30 1
Li	      6.12898     12.28742     14.55896        -0.008158      0.007890      0.005460
Li	      8.15109     12.25237     16.59859        -0.012214     -0.002771     -0.021346
Li	     10.25035     12.21545     18.71429        -0.019962     -0.010075      0.003645
Li	      6.14600      8.20522     10.40489        -0.002809      0.002387      0.000001
Li	      6.11890      8.28528     14.60895         0.019156      0.009593     -0.005620
Li	      8.21780      8.24832     16.72336         0.010518      0.002239      0.022411
Li	     10.23961      8.21242     18.75650         0.007233     -0.006800      0.000550
Li	      1.99498      4.15437      6.25861        -0.016364      0.002036      0.007081
Li	     14.40430     10.18074     20.80961         0.017131     -0.002367     -0.005131
Ti	     12.27489     12.29687     20.84339        -0.016687     -0.122979     -0.108247
Ti	     14.34737     12.21359     22.96328         0.058380     -0.062068     -0.017383
Ti	      2.05272      2.12082      4.10627        -0.051341      0.062220      0.021056
Ti	      4.12576      2.03759      6.22582         0.014255      0.122609      0.106796
Ti	      4.05131      4.13036      8.32002        -0.000226     -0.044277     -0.018980
Ti	     12.34893     10.20431     18.74840         0.002202      0.049430      0.021535
O	     12.26984     12.28153     22.89451         0.056049      0.011475     -0.005223
O	      4.09939      8.21839     10.42908        -0.060327     -0.011214      0.001558
O	      6.15621      8.20035     12.47056         0.010311     -0.021468     -0.006596
O	      8.21855      8.11103     14.48241         0.069949     -0.032173     -0.016885
O	     10.24148      8.29593     16.51231        -0.003263      0.051532     -0.096905
O	     12.33438      8.17149     18.75116         0.004384     -0.056989     -0.014895
O	      4.11333      4.03058      6.35338        -0.002718     -0.069022      0.049212
O	      6.06535      4.12257      8.45764        -0.056794     -0.005047      0.063880
O	      8.18431     10.25042     16.66171         0.001505      0.000278     -0.001453
O	     10.33486     10.21216     18.61178         0.056776      0.003954     -0.069462
O	     12.28701     10.30436     20.71566         0.003085      0.065245     -0.051053
O	      4.06624      6.16351      8.31812        -0.005520      0.052662      0.015233
O	      6.15878      6.03894     10.55729         0.004764     -0.050795      0.097632
O	      8.18170      6.22337     12.58723        -0.069105      0.032658      0.014986
O	     10.24415      6.13442     14.59858        -0.010208      0.021837      0.008144
