# total energy = -235.18166889 eV
 
CRYSTAL
PRIMVEC
-0.000110 2.074732 2.075026 
8.158834 -0.103156 8.402861 
10.256488 8.435575 1.937728 
PRIMCOORD
32 1
Li	     12.24586      4.20637      8.24194        -0.002303      0.008030     -0.006169
Li	     14.30278      6.11317      8.41189         0.006886     -0.002325      0.001235
Li	     12.29633     10.48427      6.11363        -0.004572      0.001975     -0.001201
Li	      4.07702      1.96135      2.18950        -0.010876     -0.011777      0.009172
Li	      8.18172      6.30620      1.99432        -0.014096      0.007608     -0.008099
Li	      6.15381      4.15523      6.21964         0.017413     -0.009023      0.006063
Li	     10.25860      8.49835      6.02489         0.010930      0.012787     -0.012136
Li	      8.19107      4.24408      8.20311        -0.001624      0.003886     -0.001842
Li	     10.25000      6.15059      8.37178        -0.006220     -0.007042      0.007902
Ti	     18.35219      8.35357     10.31978        -0.002919     -0.093927      0.094505
Ti	     10.28036      4.10060     10.42355         0.030967      0.032108     -0.030415
Ti	      6.00873      4.20626      2.01923        -0.107394      0.044315     -0.046481
Ti	      4.14217      2.00445      6.29573         0.007181      0.075957     -0.076811
Ti	      8.32586      6.25394      6.19311         0.126208     -0.054040      0.058234
Ti	      6.11915     -0.07609      6.30133        -0.004157      0.001611     -0.003925
Ti	     12.21477      6.25653      6.19208        -0.044137     -0.020355      0.019804
O	      2.02471      2.14599      2.00384        -0.009648      0.062119     -0.058302
O	      4.09646      4.16920      2.05542         0.064160     -0.004322      0.003970
O	     14.28548      6.09728     10.50163        -0.045228     -0.087090      0.089464
O	     16.33707      8.34887     10.32450         0.040000      0.017925     -0.015538
O	      4.08548      1.93992      4.28529         0.014868     -0.060414      0.063083
O	      6.20400      4.23891      4.06144        -0.009054      0.045710     -0.047580
O	      8.13234      6.22016      4.15212        -0.000208     -0.035506      0.038270
O	     10.25015      8.52030      3.92835        -0.017072      0.073503     -0.077895
O	      6.15791      2.00936      6.29041        -0.044066     -0.021674      0.022368
O	      8.21007      4.25978      6.11386         0.039243      0.090464     -0.092763
O	     10.23917      6.29169      6.15714        -0.061303      0.000588     -0.002580
O	     12.31093      8.31539      6.20806         0.013811     -0.069356      0.067899
O	      8.20420      2.01792      8.35720         0.015868     -0.023765      0.018059
O	     10.23070      4.02351      8.42564         0.028344     -0.091455      0.087678
O	     12.26321      6.33361      8.19031        -0.018833      0.088207     -0.086998
O	     14.29010      8.33953      8.25874        -0.012170      0.025278     -0.018973
