# total energy = -235.26551975 eV
 
CRYSTAL
PRIMVEC
0.000319 2.078320 2.076716 
16.484639 -0.305611 16.921969 
6.153038 4.166056 2.068272 
PRIMCOORD
32 1
Li	      8.22065      6.06303      6.39652        -0.008700      0.005928     -0.010025
Li	      4.14045      2.11156      6.19756        -0.006782      0.011116     -0.010946
Li	      6.15853      2.01680      4.21118         0.011393      0.003300     -0.005557
Li	      8.24444     -0.15063      8.46301         0.001371      0.001319     -0.001892
Li	     10.28242      1.86436      8.52719         0.006348     -0.010232      0.006228
Li	     12.36037      4.07725     12.54310        -0.011145      0.009718     -0.004736
Li	     18.50013      3.83095     14.87027         0.009222     -0.012355      0.011437
Li	     14.42107     -0.12149     14.66848         0.009073     -0.006361      0.012140
Li	     16.48221      3.92194     16.85814        -0.014113     -0.004105      0.005496
Ti	      6.14964      4.16420      2.07125         0.006954      0.004801     -0.006495
Ti	     18.56808      3.88219     18.99265         0.008992      0.122566     -0.082809
Ti	      4.07530      2.05789      2.07309        -0.020768     -0.122349      0.086799
Ti	     12.23414      4.03186      8.43608        -0.120715     -0.046050      0.046318
Ti	      8.33889      4.07384      8.39338         0.106158      0.050577     -0.052232
Ti	     10.40762      1.90970     12.63501         0.123795      0.054338     -0.058008
Ti	     14.30313      1.86811     12.67562        -0.107934     -0.067689      0.069378
O	      2.01928      2.06392      2.11091        -0.002924      0.031237     -0.020689
O	     20.61726      3.87867     18.95223         0.011920     -0.036180      0.030506
O	      4.11665      2.13163      4.09715        -0.003244      0.037166     -0.026447
O	      6.14779      4.18069      4.13818        -0.085243      0.038717     -0.013335
O	      6.23249      1.91617      6.39426         0.023423     -0.040843      0.038080
O	      8.22996      3.98922      6.39888         0.018893     -0.072652      0.069953
O	      8.19015      2.02372      8.36662        -0.024124      0.039356     -0.038870
O	     10.28733      4.05193      8.41560         0.003401     -0.003078      0.001854
O	     10.29435      1.82345     10.64282         0.022061     -0.069632      0.066779
O	     12.34753      4.11795     10.42821        -0.018992      0.068904     -0.068017
O	     12.35447      1.88951     12.65469        -0.001028      0.003257     -0.002799
O	     14.45246      3.91725     12.70348         0.015141     -0.030649      0.032922
O	     14.41236      1.95088     14.67127        -0.020501      0.080259     -0.076372
O	     16.40889      4.02565     14.67601        -0.020379      0.032762     -0.034432
O	     16.49667      1.75474     16.93373         0.078844     -0.036342      0.007224
O	     18.52102      3.80801     16.96965         0.009606     -0.036805      0.028548
