# total energy = -118.84408015 eV
 
CRYSTAL
PRIMVEC
0.000064 2.103504 2.103525 
6.233494 0.030662 -2.134081 
-2.100520 6.537097 -4.433615 
PRIMCOORD
16 1
Li	     -0.00237      2.37721      1.83103         0.007622     -0.017339      0.015700
Li	      1.88214      2.17699     -0.07202         0.043051      0.019406     -0.018604
Li	      4.34173      2.15078     -2.14628        -0.046305     -0.020271      0.019323
Li	     -0.00706      4.02069      0.18740        -0.002504      0.020170     -0.019439
Ti	      2.07651      4.30647     -2.20131         0.001544     -0.049475      0.048039
Ti	      4.28387      4.42086     -4.42115         0.052776     -0.020380      0.019282
Ti	     -0.16055      6.43953     -2.23355        -0.052982      0.021900     -0.019366
Ti	      2.04533      6.55576     -4.45214         0.003018      0.043628     -0.051489
O	      4.06146      4.48142     -2.37785        -0.086283      0.046986     -0.051409
O	      4.05353      1.97105      0.13178         0.016038     -0.072239      0.073917
O	      2.06133      6.48258     -2.27536        -0.000879      0.001280      0.003202
O	      2.17036      2.35303     -2.35243        -0.020048      0.074346     -0.072601
O	      4.05038      6.51171     -4.40872        -0.020880     -0.084407      0.082987
O	      0.06084      6.37962     -4.27734         0.086875     -0.048785      0.051350
O	      0.07180      4.34804     -2.24554         0.022128      0.084086     -0.082509
O	     -0.00477      2.14725     -0.04274        -0.003171      0.001095      0.001615
