# total energy = -120.38507027 eV
 
CRYSTAL
PRIMVEC
-0.000027 2.085828 2.086460 
6.264501 6.340190 -4.255498 
-4.184756 2.124260 -2.124739 
PRIMCOORD
16 1
Li	     -4.06612      4.22992     -0.05995         0.012434     -0.000587     -0.003651
Li	     -2.11825      4.18821     -2.10724         0.002476     -0.023320      0.022347
Li	     -0.15883      6.22542     -2.05863         0.012553      0.019354     -0.017186
Li	     -2.06999      2.15683     -0.07540         0.001754     -0.014187      0.014477
Ti	      2.14164      6.32123     -4.23797         0.021432      0.019675     -0.021900
Ti	     -0.10802      4.17118     -0.00328        -0.382467     -0.064770      0.061821
Ti	      2.15998      4.27837     -2.19670         0.126027      0.000489      0.001744
Ti	      4.06696      6.33763     -2.16727        -0.079633      0.029442     -0.033131
O	      1.90511      6.34872     -2.18009        -0.115019      0.021675     -0.028953
O	      2.07139      4.31572     -0.14827        -0.049584      0.053273     -0.046951
O	      0.04264      6.36282     -4.27992         0.067058      0.005047     -0.003453
O	      2.05045      8.37080     -4.20079        -0.003499     -0.072666      0.069864
O	     -1.94199      4.22017     -0.05279         0.402933     -0.000447      0.006239
O	      0.07836      4.15393     -2.07249        -0.000677     -0.070376      0.070645
O	      4.19687      6.30422     -4.22009        -0.005898     -0.034431      0.033193
O	      0.06444      2.19084     -0.10954        -0.009889      0.131829     -0.125104
