# total energy = -120.41671798 eV
 
CRYSTAL
PRIMVEC
0.000106 2.110531 2.110396 
6.048851 6.279056 -4.167966 
-4.058241 2.104404 -2.104457 
PRIMCOORD
16 1
Li	     -3.98199      4.22474      0.00021         0.002696      0.018869     -0.023318
Li	     -2.11494      4.19686     -2.08702        -0.005413     -0.018588      0.018470
Li	      1.95587      6.27949     -4.16847         0.011824     -0.005789      0.006228
Li	      2.05252      4.20723     -2.09538        -0.003583      0.001329     -0.001695
Ti	      0.00108      6.28015     -2.05874        -0.012784     -0.011658      0.005295
Ti	      3.92973      8.35444     -4.13195        -0.091332     -0.006521      0.035349
Ti	      0.08021      4.24126     -0.02036         0.094473      0.006578     -0.034062
Ti	      4.00841      6.31582     -2.09332         0.011129      0.010312     -0.008591
O	      2.00501      6.29789     -2.07616        -0.003392      0.000477     -0.000465
O	      2.03250      4.19240      0.02829        -0.068654      0.021085     -0.007923
O	     -0.02438      6.29475     -4.18373        -0.001817      0.001422      0.002188
O	      1.97724      8.40329     -4.18018         0.071462     -0.017716      0.005365
O	     -1.99029      4.15328      0.06874         0.078040      0.006173      0.007152
O	     -0.00942      4.20009     -2.08931        -0.005707     -0.030335      0.038330
O	      4.01974      6.28490     -4.17309         0.001659      0.035644     -0.040533
O	     -0.04888      2.16385     -0.05369        -0.078601     -0.011284     -0.001791
