# total energy = -120.39203015 eV
 
CRYSTAL
PRIMVEC
0.000050 2.069873 2.069918 
8.247680 -4.247150 4.247254 
2.057850 2.146563 -4.216345 
PRIMCOORD
16 1
Li	      8.28076     -4.18464      4.18658        -0.004644      0.005834     -0.010126
Li	      2.02992      2.03613      0.03366         0.001926     -0.009637      0.008191
Li	      3.99337      0.08038     -0.07990        -0.006023     -0.014142      0.012287
Li	      8.37432     -0.08404      0.08151         0.006994      0.015086     -0.009161
Ti	      4.03038      2.13326     -2.13141        -0.019416      0.047730     -0.057044
Ti	      4.19429     -2.11222      2.11059         0.090290      0.119732     -0.116697
Ti	      6.11523     -0.03839      2.10831        -0.087576     -0.120433      0.115806
Ti	      8.33939     -2.13731      2.13438         0.026451     -0.048107      0.058729
O	      8.28269     -2.06234      4.13088        -0.009397      0.089195     -0.091814
O	      4.03961      0.00313      2.06521        -0.089334     -0.033183      0.037077
O	      6.18400     -0.00203      0.00123         0.000928      0.000810     -0.000186
O	      6.27093     -2.15351      2.15321         0.088378      0.035191     -0.036238
O	      8.22412     -0.07441      2.14203        -0.002419     -0.030927      0.041209
O	      2.06021      2.12168     -2.12202        -0.001435      0.000389     -0.001542
O	      2.02726     -0.08815      0.08844         0.008658     -0.090372      0.092493
O	      4.14332      2.13986     -0.06889        -0.003381      0.032834     -0.042986
