# total energy = -118.93636479 eV
 
CRYSTAL
PRIMVEC
-0.000037 2.088786 2.088774 
8.392214 2.120869 -2.120938 
-0.000143 4.242176 -4.242110 
PRIMCOORD
16 1
Li	      8.35365      2.34912     -2.34904        -0.033202     -0.017740      0.018047
Li	      1.82946      2.10491     -0.01416         0.067236      0.000015     -0.000219
Li	      6.62190      4.22482     -2.13596        -0.047580     -0.002588      0.002945
Li	      8.35339      4.01187     -4.01175        -0.030198      0.013335     -0.012951
Ti	      4.27130      2.08327     -2.08324         0.124504     -0.035002      0.026228
Ti	      1.78745      4.22437     -2.13638        -0.476679      0.002165     -0.001323
Ti	      4.27112      6.36571     -2.18822         0.120078      0.031051     -0.038662
Ti	      6.27239      6.34552     -4.25713        -0.004871      0.000336     -0.002185
O	      4.22875      4.22444     -2.13619        -0.079836     -0.001963      0.003003
O	      6.29375      6.37961     -2.20261        -0.031867      0.037698     -0.037278
O	      4.06397      2.10303     -0.01535        -0.030286      0.006481      0.006650
O	      6.29381      4.15783      0.01903        -0.029489     -0.036067      0.037013
O	      0.04257      2.10390     -0.01503         0.035257      0.000290     -0.000241
O	      2.20626      4.32782     -0.15094        -0.035746      0.121042     -0.121947
O	      8.37357      6.34521     -4.25740         0.486629      0.002651     -0.001492
O	      2.20611      6.20979     -2.03299        -0.033950     -0.121705      0.122410
