# total energy = -119.21622909 eV
 
CRYSTAL
PRIMVEC
0.000002 2.086973 2.087071 
4.185977 -4.273983 4.274414 
4.182532 4.272520 -4.272922 
PRIMCOORD
16 1
Li	      0.29196     -0.00070      0.00133        -0.055979     -0.006608      0.006584
Li	      2.09240      1.86256      0.22507        -0.000667      0.041261     -0.041075
Li	      2.09371      0.22417      1.86332        -0.002815     -0.011611      0.011991
Li	      3.89405     -0.00190      0.00225         0.054665     -0.004254      0.004389
Ti	      4.10440      2.18424     -2.18396        -0.070682      0.034777     -0.026227
Ti	      6.27805      2.04381      0.04461         0.000131     -0.059602      0.059658
Ti	      4.26745     -2.08754      2.08875         0.065836      0.015829     -0.014057
Ti	      6.27869     -0.02971      2.11793        -0.005258      0.036011     -0.033409
O	      4.30214      2.20317     -0.11511         0.068787      0.043293     -0.045191
O	      4.18623     -0.06089      2.14923         0.014063     -0.078290      0.077754
O	      6.27865     -0.01639      0.01771         0.000920      0.023858     -0.025378
O	      4.07090     -2.07058      4.15885        -0.078546      0.057387     -0.057518
O	      6.27881     -2.13399      2.13542         0.003654      0.005696     -0.009634
O	      4.18411      4.21231     -2.12394        -0.015217     -0.087637      0.082482
O	      2.09272      0.01677     -0.01636         0.010448     -0.012659      0.014732
O	      6.27612      2.02236     -2.02087         0.010660      0.002547     -0.005102
