# total energy = -119.80469974 eV
 
CRYSTAL
PRIMVEC
0.000091 2.079699 2.079765 
8.533022 0.000061 0.000223 
-0.000010 4.186007 -4.186094 
PRIMCOORD
16 1
Li	      0.32152      0.00306     -0.00024         0.005642     -0.003661      0.003074
Li	      2.18573      2.03628      0.04609         0.007874      0.001510     -0.003197
Li	      3.95403      2.09435     -2.09286        -0.038454      0.004059     -0.003074
Li	      2.18620      4.23384     -2.15168         0.007343     -0.003048      0.002561
Ti	      6.33063      4.22371     -2.14181        -0.085712      0.019773     -0.025151
Ti	      4.19311      0.00239     -0.00056         0.011682     -0.011750      0.011243
Ti	      6.33054      2.04614      0.03586        -0.081633     -0.024028      0.018438
Ti	      0.18154      2.09458     -2.09296         0.530454      0.009865     -0.010391
O	      4.26997      2.07592      0.00553        -0.068651     -0.034312      0.035584
O	      6.41636      2.09506     -2.09320         0.031357     -0.000901      0.003737
O	      4.26985      4.19316     -2.11197        -0.061601      0.045274     -0.043593
O	      6.46654      0.00181     -0.00003         0.077040      0.002357      0.003109
O	      8.42365      2.14665     -0.06497         0.018325      0.040723     -0.041772
O	      1.97952      2.09473     -2.09377        -0.565538     -0.000792      0.003614
O	      8.42299      4.12315     -2.04134         0.021709     -0.047886      0.046322
O	      2.29192      0.00200     -0.00005         0.190160      0.002819     -0.000504
