# total energy = -120.44232604 eV
 
CRYSTAL
PRIMVEC
-0.000033 0.000363 4.096823 
4.096857 0.000070 -0.000033 
0.000154 8.420753 0.000720 
PRIMCOORD
16 1
Li	      4.09521      0.00087      4.09613         0.004266      0.000237     -0.005380
Li	      2.05022      2.10437      4.09630        -0.003254      0.001706     -0.006327
Li	      4.09589      4.21131      4.09183         0.001108     -0.000775      0.006843
Li	      4.09506      6.31347      2.04442         0.001166      0.006077      0.002037
Ti	      2.04561      6.31609      4.09370         0.004874      0.006047     -0.002714
Ti	      2.04828      8.42062      2.04739        -0.005382      0.003767     -0.000509
Ti	      0.00096      2.10685      2.04802         0.002715     -0.010795     -0.003795
Ti	      2.04768      4.21113      2.04465         0.001465     -0.006672      0.002217
O	      4.09663      0.01961      2.04649        -0.001949     -0.005737     -0.001945
O	      2.04963      2.10552      2.04647        -0.003994      0.001848      0.001667
O	      2.04791      8.40317      4.09538         0.001293      0.000088      0.002393
O	      4.09660      4.19237      2.04398        -0.002454      0.010743      0.005853
O	      2.04638      6.31613      2.04509         0.003690     -0.002082     -0.000692
O	      0.00146      2.10629      4.09457        -0.006291      0.001641     -0.002964
O	      2.04796      4.22980      4.09284        -0.000485     -0.003339      0.000884
O	      4.09525      6.31643      4.09313         0.003231     -0.002752      0.002431
