# total energy = -120.72132517 eV
 
CRYSTAL
PRIMVEC
2.080727 4.195700 2.080682 
4.167591 -4.209647 0.021558 
4.145981 -0.000058 -4.145786 
PRIMCOORD
16 1
Li	      6.28337     -0.02122      2.03198         0.013485      0.009036      0.000513
Li	      2.15387      2.07991      0.08199         0.004449     -0.000063      0.004718
Li	      8.24947     -0.02180      0.06692         0.001111      0.010252      0.011321
Li	      4.09991      2.07221      2.02787         0.001088     -0.002538      0.001458
Ti	      8.28420     -2.10420     -2.07966        -0.062931     -0.065631     -0.062291
Ti	      4.14448     -0.04132     -0.00176        -0.063911     -0.026726      0.015900
Ti	      4.23442     -1.98395     -1.98356         0.070057      0.084385      0.068765
Ti	      6.21650     -0.04131     -2.07360         0.014314     -0.028069     -0.063370
O	      4.18935     -2.10670      0.03866         0.001175      0.045891     -0.028802
O	      6.18858      0.06644     -0.02948        -0.058356      0.045990     -0.057388
O	      2.14957     -0.02483      0.07740         0.085773      0.014488      0.086031
O	      4.22736      2.06225     -0.03233         0.023261     -0.037298     -0.008066
O	      6.25672     -2.10681     -2.02867        -0.028587      0.047299      0.001691
O	      8.28385     -0.04078     -2.08016        -0.026546     -0.012100     -0.026720
O	      4.10640      0.05702     -2.11164         0.033921     -0.049076      0.033579
O	      6.18565      2.06215     -1.99050        -0.008305     -0.035841      0.022662
