# total energy = -120.24992589 eV
 
CRYSTAL
PRIMVEC
-0.000066 4.120754 0.000009 
4.205841 -0.000063 4.206128 
4.204912 -0.000091 -4.205188 
PRIMCOORD
16 1
Li	      4.31432      4.11917     -4.09332         0.023695     -0.000441      0.026560
Li	      1.98916      2.05868      0.11111        -0.026364     -0.000143      0.027992
Li	      6.19450      4.11884     -2.21051        -0.027363      0.000173     -0.028187
Li	      4.31414      2.05919     -2.21197         0.024742     -0.001156     -0.025179
Ti	      4.17547      4.11956     -0.02508        -0.159654     -0.004367     -0.156333
Ti	      6.33269      2.05834     -0.02411         0.158310      0.003651     -0.157999
Ti	      4.17521      2.05879      2.13136        -0.155422     -0.000992      0.154585
Ti	      2.12734      4.11937     -2.07515         0.158356      0.000964      0.160595
O	      2.16996      4.11907     -0.06868         0.047154      0.001169     -0.042873
O	      4.20381      2.05876      0.00262        -0.011203      0.004137     -0.011542
O	      4.20419      4.11907      2.10351        -0.012961      0.002340      0.012032
O	      6.30442      2.05927      2.10433         0.011843     -0.003822      0.009236
O	      4.13275      4.11958     -2.03153        -0.042926     -0.001697      0.045636
O	      6.37505      2.05851     -2.03082         0.046335      0.000810      0.042699
O	      6.30469      4.11903      0.00275         0.009181     -0.000141     -0.013021
O	      8.33840      2.05876     -0.06777        -0.043722     -0.000486     -0.044200
