# total energy = -59.53283562 eV
 
CRYSTAL
PRIMVEC
3.938358 0.000000 0.000000 
0.001306 3.938358 0.000000 
1.968929 1.953706 4.091313 
PRIMCOORD
8 1
Li	      1.90045      3.80020      0.00363         0.282598      0.491299     -0.198038
Li	      3.79920      3.79502      1.97986         0.467093      0.426093      0.175083
Ti	      1.90011      1.89728      1.98377        -0.931501     -0.958610      0.906526
Ti	      0.00114      1.89967      0.00051        -1.415248      0.574606     -0.801937
O	      1.90106      1.90160      0.01110         1.025124     -0.076154     -1.594963
O	      3.80048      1.89523      1.97319         1.387907     -0.318066      1.476545
O	      0.00000      0.00000      0.00000        -0.584189     -1.428972     -0.062079
O	      1.90129      3.79657      1.98436        -0.231784      1.289804      0.098862
