# total energy = -684.85113060 eV
 
CRYSTAL
PRIMVEC
12.062301 -0.001939 0.001137 
0.001329 7.868509 0.014564 
4.020219 3.915749 9.043899 
PRIMCOORD
84 1
Li	      6.03112      7.85244      8.73071         0.001458      0.001672     -0.033032
Li	      6.03056      3.91809      8.72511         0.001278     -0.000123     -0.035433
Li	     10.05289      7.85130      8.73285        -0.006754      0.001552     -0.034884
Li	     10.05221      3.91728      8.72552        -0.005714      0.000092     -0.034164
Li	     14.07202      7.85094      8.73341         0.005060     -0.000681     -0.035299
Li	     14.07144      3.91699      8.72612         0.004270      0.000608     -0.035650
Li	      4.02015      3.92931      2.59556         0.008361      0.001981      0.039542
Li	      4.02098      7.86424      2.60417         0.007517     -0.002130      0.038090
Li	      8.04175      3.92839      2.59873         0.004094      0.001393      0.036082
Li	      8.04237      7.86303      2.60593         0.003517      0.001088      0.036744
Li	     12.06319      3.92813      2.59935        -0.001308      0.000656      0.033941
Li	     12.06385      7.86281      2.60695        -0.001282     -0.000726      0.034125
Ti	      2.01060      1.96330      2.32856        -0.006597      0.003630      0.203824
Ti	      4.02005      3.92210      6.61245         0.005510      0.001203     -0.002222
Ti	      2.01148      5.89734      2.33636        -0.002435      0.008882      0.194528
Ti	      4.02070      7.85617      6.61923         0.001970      0.004769      0.009489
Ti	      6.03143      1.96245      2.32866         0.002844      0.002798      0.214148
Ti	      8.04125      3.92139      6.61256        -0.007291      0.003002      0.002743
Ti	      6.03261      5.89666      2.33612        -0.008992      0.009907      0.210711
Ti	      8.04175      7.85530      6.61928        -0.001567      0.003386      0.016757
Ti	     10.05209      1.96201      2.32890        -0.002492      0.004307      0.215158
Ti	     12.06174      3.91993      6.61274         0.004096      0.003098     -0.007305
Ti	     10.05300      5.89620      2.33574        -0.001636      0.005483      0.224379
Ti	     12.06242      7.85420      6.62014         0.002402      0.004675     -0.001404
Ti	      4.02038      5.88526      8.99358        -0.000333     -0.001797     -0.201516
Ti	     14.07303      3.92452      4.71107        -0.007354     -0.002575     -0.000300
Ti	      4.02063      9.81954      9.00096         0.010914     -0.007799     -0.203423
Ti	     14.07359      7.85892      4.71888        -0.007165     -0.000446     -0.009657
Ti	      8.04095      5.88451      8.99499         0.002361     -0.001159     -0.212839
Ti	      6.03081      3.92593      4.71042        -0.001379     -0.001794     -0.000070
Ti	      8.04168      9.81899      9.00168         0.000177     -0.010080     -0.203212
Ti	      6.03138      7.86022      4.71869         0.000926     -0.001013     -0.017889
Ti	     12.06152      5.88361      8.99411         0.004036     -0.004351     -0.190844
Ti	     10.05168      3.92527      4.71134         0.001666     -0.000026     -0.017097
Ti	     12.06238      9.81792      9.00175        -0.002728     -0.006257     -0.196441
Ti	     10.05232      7.85931      4.71890         0.000262     -0.001830     -0.022802
O	      2.01055      1.96869      0.25913        -0.000334      0.000097      0.057507
O	      4.02057      3.92574      4.65923        -0.000404     -0.000345      0.109963
O	      2.01142      5.90257      0.26686        -0.004008      0.002342      0.053052
O	      4.02144      7.86083      4.66640        -0.004765     -0.000809      0.110484
O	      6.03103      1.96726      0.26002         0.005858      0.003108      0.051429
O	      8.04115      3.92555      4.65956         0.000802     -0.000649      0.115033
O	      6.03135      5.90180      0.26768         0.013138      0.003414      0.048995
O	      8.04184      7.85970      4.66692        -0.001384     -0.001297      0.111647
O	     10.05213      1.96712      0.26036        -0.004460      0.000986      0.049573
O	     12.06210      3.92495      4.65910         0.000568     -0.000715      0.126194
O	     10.05290      5.90127      0.26730        -0.005846      0.001647      0.053058
O	     12.06242      7.85876      4.66729         0.006771     -0.000361      0.115146
O	      4.02067      1.96365      2.02051        -0.001454     -0.000985     -0.066535
O	      6.03049      3.92180      6.66370         0.000437     -0.003298     -0.111638
O	      4.02128      5.89779      2.02726         0.000534      0.000240     -0.061480
O	      6.03124      7.85628      6.67142        -0.001085     -0.004912     -0.111513
O	      8.04143      1.96260      2.02064         0.001414      0.000707     -0.068333
O	     10.05103      3.92112      6.66402         0.005104     -0.003941     -0.102963
O	      8.04199      5.89673      2.02830         0.004120      0.002704     -0.070983
O	     10.05169      7.85512      6.67096         0.002601     -0.003796     -0.098432
O	     12.06150      1.96239      2.02013         0.012404     -0.000727     -0.060126
O	     14.07246      3.92038      6.66423        -0.009507     -0.004116     -0.107072
O	     12.06264      5.89623      2.02770         0.005658      0.001140     -0.062265
O	     14.07295      7.85456      6.67159        -0.006405     -0.002606     -0.105370
O	      4.02011      3.91839      8.81277        -0.004770     -0.003668      0.019594
O	      2.00895      1.96022      4.26514         0.003562     -0.001447     -0.122413
O	      4.02053      7.85246      8.82034        -0.003966     -0.000216      0.016473
O	      2.01076      5.89439      4.27236         0.000357      0.002736     -0.117359
O	      8.04107      3.91767      8.81420        -0.005803     -0.001743      0.015971
O	      6.03090      1.95958      4.26553        -0.000713     -0.001157     -0.122401
O	      8.04214      7.85189      8.82151        -0.007175     -0.004129      0.015765
O	      6.03061      5.89385      4.27297         0.002893      0.000740     -0.121549
O	     12.06147      3.91651      8.81424        -0.002632     -0.000503      0.014468
O	     10.05091      1.95893      4.26614         0.002602      0.001100     -0.125303
O	     12.06169      7.85083      8.82160         0.000205     -0.000538      0.016379
O	     10.05150      5.89329      4.27349         0.002676     -0.001467     -0.128950
O	      2.01080      3.93021      2.50979        -0.001576      0.000041     -0.018024
O	      4.02049      5.88855      7.05676        -0.000117     -0.001083      0.129975
O	      2.01093      7.86452      2.51680         0.001438      0.001926     -0.015860
O	      4.02162      9.82276      7.06432        -0.002524     -0.002331      0.130463
O	      6.03153      3.92959      2.51010        -0.002077     -0.001480     -0.018610
O	      8.04150      5.88769      7.05804        -0.001000      0.001074      0.128247
O	      6.03203      7.86371      2.51722        -0.000408      0.002603     -0.016665
O	      8.04246      9.82206      7.06533        -0.001704     -0.001222      0.125322
O	     10.05223      3.92899      2.51044        -0.002042      0.001103     -0.019168
O	     12.06240      5.88693      7.05836        -0.001865     -0.004809      0.121768
O	     10.05311      7.86326      2.51799        -0.002473     -0.001259     -0.021680
O	     12.06261      9.82055      7.06572        -0.000336      0.006506      0.123409
