# total energy = -687.67507877 eV
 
CRYSTAL
PRIMVEC
12.230302 -0.001026 0.012818 
0.002055 7.909271 0.013142 
4.083742 3.935573 8.877177 
PRIMCOORD
85 1
Li	     10.22025      7.90479      8.73902        -0.007407     -0.002644     -0.024586
Li	      8.15743      5.91891      4.42943        -0.001241      0.001008     -0.032825
Li	     10.21569      3.92685      8.71656        -0.015636      0.005491     -0.013176
Li	      8.12726      9.88754      4.52494         0.000382     -0.000608     -0.027938
Li	     14.32004      7.88478      8.70475        -0.004223     -0.001467     -0.031311
Li	     12.31015      5.92312      4.20338         0.003458     -0.010867     -0.008743
Li	     14.31956      3.94322      8.70831         0.004510     -0.005618     -0.028232
Li	      6.07282      5.91522      6.89085         0.010636      0.002047      0.028696
Li	      4.01321      7.89673      2.47521         0.004535      0.010014      0.038407
Li	      8.14331      3.94140      2.42495         0.000118     -0.007534      0.009279
Li	     10.20045      5.91939      6.65571        -0.008516     -0.002646      0.008732
Li	      8.11514      7.91560      2.41897        -0.001055      0.000816      0.005389
Li	     10.22043      9.87445      6.62351        -0.007696      0.000071      0.016097
Ti	      2.02116      2.02051      2.21296        -0.002113      0.093963     -0.044310
Ti	      4.03163      3.86483      6.59642        -0.093579     -0.080455      0.013157
Ti	      2.00540      5.89405      2.17160        -0.036956     -0.050377      0.055100
Ti	      4.03615      7.95794      6.57216        -0.067484      0.084192      0.004996
Ti	      5.98563      2.00372      2.20074        -0.217303      0.021306      0.001945
Ti	      8.06863      3.91793      6.64423        -0.226157      0.046295      0.114298
Ti	      5.96739      5.90034      2.21494        -0.193832     -0.011406      0.047925
Ti	      8.07938      7.92204      6.64655        -0.237422     -0.046939      0.103630
Ti	     10.40526      1.97053      2.35693         0.249400      0.007305     -0.137887
Ti	     12.35235      3.91855      6.58011         0.174453     -0.015304     -0.041122
Ti	     10.33081      5.92940      2.23928         0.094091      0.000692     -0.151109
Ti	     12.35016      7.91674      6.59587         0.196465      0.018272     -0.042706
Ti	      0.06360      1.98262      0.02169         0.137574      0.013537      0.030923
Ti	      2.09993      3.92555      4.54988         0.071544     -0.039636     -0.014768
Ti	      0.06715      5.92499      0.14121         0.040739      0.004966     -0.033983
Ti	     14.31296      7.91969      4.55744         0.085476      0.050955     -0.003187
Ti	      3.96700      2.00334      0.05351        -0.221366      0.013772     -0.016466
Ti	      5.93378      3.93647      4.47521        -0.284937     -0.004173      0.001069
Ti	      7.97041      9.85874      8.88116        -0.267297      0.017582     -0.032703
Ti	      5.98692      7.92163      4.51419        -0.233791     -0.012316      0.000464
Ti	      8.23733      1.97644      0.08866         0.067879      0.002698      0.013157
Ti	     10.29961      3.92268      4.42834         0.101448     -0.028535      0.077326
Ti	      8.22658      5.93516      0.11902         0.088294      0.006827     -0.001631
Ti	     10.29632      7.92447      4.42201         0.082247      0.030598      0.064737
O	      2.02276      1.98874      0.13696         0.041302     -0.012543     -0.049322
O	      4.06983      3.94343      4.57736         0.173203     -0.008196      0.068291
O	      2.02555      5.92257      0.13530         0.167432      0.006335      0.069909
O	      4.07834      7.90923      4.53280         0.110830      0.002447      0.040049
O	      6.13923      1.98179      0.19834         0.072178     -0.011409     -0.014529
O	      8.18719      3.95166      4.61096         0.047660     -0.007397     -0.000853
O	      6.15168      5.93184      0.22448         0.009610     -0.000344      0.023679
O	      8.17711      7.89971      4.60389         0.056642      0.011303      0.020968
O	     10.19118      1.97811      0.28487        -0.125922     -0.004115      0.007565
O	     12.22865      4.01227      4.62437        -0.148192     -0.001548      0.066358
O	     10.18243      5.93030      0.21517        -0.076283     -0.002865      0.048078
O	     12.22532      7.83590      4.64154        -0.137736      0.000835      0.059879
O	      4.06509      1.90904      2.04120         0.134700     -0.025279      0.012218
O	      6.13643      4.00553      6.43961         0.135161     -0.013370     -0.079537
O	      4.07498      5.98954      2.00490         0.169350     -0.010946     -0.069105
O	      6.13674      7.83449      6.47174         0.151610      0.011824     -0.072593
O	      8.13129      1.97150      2.04716         0.032954     -0.005950     -0.080039
O	     10.18892      3.94848      6.50797        -0.010210     -0.002588     -0.016778
O	      8.12456      5.93156      2.08472         0.007714      0.000577     -0.080643
O	     10.18979      7.89149      6.51130        -0.009684      0.002430     -0.023851
O	     12.24447      1.96754      2.05640        -0.233197     -0.012212      0.049764
O	     14.27861      3.92171      6.60564        -0.061771      0.005468     -0.002112
O	     12.24468      5.92484      2.20358        -0.070110      0.003385     -0.013236
O	     14.27153      7.91065      6.60200        -0.087682     -0.001964      0.001351
O	      4.02745      3.92803      8.66479         0.007176     -0.001496      0.025672
O	      2.02504      1.97228      4.21542        -0.006314      0.009841      0.002282
O	      4.02204      7.89776      8.66245        -0.001999     -0.011240      0.042248
O	      2.00858      5.92183      4.24970        -0.018578      0.002582      0.002665
O	      8.24537      3.94320      8.64999         0.033812     -0.062420      0.031327
O	      6.19487      1.97170      4.21036         0.021712      0.025562     -0.023683
O	      8.25563      7.89334      8.65484         0.043638      0.041604      0.004336
O	      6.18428      5.92818      4.22356         0.025526     -0.036862     -0.025820
O	     12.25833      3.93512      8.72222        -0.014495      0.002135      0.033626
O	     10.14284      1.97029      4.39562         0.043541     -0.005590     -0.039832
O	     12.25950      7.89395      8.72419        -0.010524     -0.022259      0.041840
O	     10.19893      5.92422      4.34691         0.017253      0.002492     -0.030624
O	      2.05733      3.94323      2.47281         0.001890      0.004282     -0.021911
O	      4.13355      5.91926      6.91977        -0.007213      0.004061      0.035009
O	      2.09222      7.90295      2.48284        -0.000672     -0.013408     -0.013282
O	      4.10136      9.86683      6.90790        -0.015060      0.001977     -0.008499
O	      6.16127      3.95079      2.39999        -0.002957      0.004545     -0.004834
O	      8.15171      5.91891      6.81354         0.088991      0.028250     -0.116357
O	      6.10220      7.90608      2.41352         0.022897      0.015743     -0.044135
O	      8.21206      9.87617      6.78060         0.070475     -0.021981     -0.013556
O	     10.10105      3.95687      2.40619         0.060186      0.038635      0.078585
O	     12.18235      5.91743      6.93759        -0.025768     -0.005609      0.033692
O	     10.09681      7.89798      2.40417         0.057655     -0.038111      0.073440
O	     12.16654      9.87283      6.94826        -0.025970      0.001512      0.023657
