# total energy = -704.52923523 eV
 
CRYSTAL
PRIMVEC
12.206840 -0.002011 0.011770 
0.001321 8.066226 0.012761 
4.075758 4.013602 8.634898 
PRIMCOORD
90 1
Li	      2.02117      4.02885      0.05756        -0.003209     -0.005799     -0.001261
Li	      4.05211      6.04829      4.40214        -0.004971      0.001855      0.003013
Li	      2.01490      8.07460      0.09107        -0.004954      0.001581      0.003418
Li	      4.05971     10.06876      4.38139        -0.003121     -0.006049     -0.001599
Li	     10.21506      8.04569      8.63870        -0.012951      0.008340     -0.010153
Li	      8.17602      6.04140      4.31813        -0.003519     -0.001402     -0.009472
Li	     10.21324      4.01509      8.62919        -0.003618     -0.001377     -0.009261
Li	      8.17652      2.00577      4.31487        -0.012888      0.008374     -0.010432
Li	      4.02453      4.03002      2.14528         0.016885     -0.000985     -0.005943
Li	      6.10033      6.03678      6.46646         0.014639     -0.002156     -0.001212
Li	      4.06311      8.06310      2.15539         0.014585     -0.002251     -0.001033
Li	      6.06307     10.06993      6.46911         0.016949     -0.001084     -0.005990
Li	      8.21736      4.03139      2.18409         0.005900     -0.003763      0.027451
Li	     10.20470      6.03204      6.53236         0.001041      0.005398      0.041039
Li	      8.16748      8.05835      2.22129         0.001103      0.005516      0.041259
Li	     10.25589     10.07130      6.50792         0.005732     -0.003662      0.027238
Li	     12.16586      4.02668      2.21545        -0.002521     -0.003781      0.009135
Li	     14.20440     10.06659      6.53928        -0.002406     -0.003936      0.009060
Ti	      1.91808      1.97844      2.22037        -0.132074     -0.023352     -0.039637
Ti	      3.96488      4.05459      6.50910        -0.096280      0.018343     -0.068035
Ti	      1.92766      6.08090      2.19803        -0.096528      0.018754     -0.068021
Ti	      3.95662      8.01836      6.54420        -0.132207     -0.022913     -0.039858
Ti	      6.12281      2.02176      2.18316         0.046418      0.027463     -0.084060
Ti	      8.14892      4.01029      6.51714         0.004652     -0.030539     -0.119112
Ti	      6.11170      6.03660      2.20607         0.004323     -0.030115     -0.118620
Ti	      8.16135      8.06167      6.50699         0.046273      0.027876     -0.084720
Ti	     10.21778      1.96341      2.09774         0.046384     -0.042587     -0.017026
Ti	     12.26124      4.06453      6.38698         0.047738      0.034177     -0.021595
Ti	     10.22403      6.09085      2.07591         0.048672      0.034058     -0.021488
Ti	     12.25632      8.00332      6.42157         0.046431     -0.042647     -0.017258
Ti	     16.14942      6.00403      8.62089        -0.175429     -0.005009      0.076268
Ti	     14.14773      4.05539      4.32669        -0.114971      0.018031      0.057930
Ti	     16.18627     10.09531      8.65052        -0.114984      0.017751      0.059092
Ti	     14.11220      8.03035      4.30982        -0.175262     -0.005311      0.075018
Ti	      8.14026      6.02772      8.60586         0.024501      0.009399      0.088380
Ti	      6.10803      4.02811      4.26636         0.028933     -0.010163      0.100906
Ti	      8.14657     10.06803      8.59019         0.028496     -0.009736      0.101214
Ti	      6.10304      8.05404      4.29479         0.024567      0.009769      0.087652
Ti	      8.24832      2.00782      0.10052         0.133552     -0.002416      0.001147
Ti	     10.26803      4.02826      4.40771         0.111271      0.011574     -0.016855
Ti	      8.23081      6.05457      0.09664         0.111761      0.011584     -0.016791
Ti	     10.28686      8.04774      4.42435         0.133343     -0.002397      0.000538
O	      2.07665      2.01465      0.10447         0.028026     -0.006324     -0.007794
O	      4.11193      4.02953      4.39918         0.012064      0.001256     -0.008651
O	      2.07472      6.05584      0.08811         0.012232      0.001201     -0.009293
O	      4.11519      8.05457      4.42830         0.028022     -0.006377     -0.007656
O	      6.06112      2.01477      0.09581        -0.038560     -0.007608      0.003748
O	      8.10768      4.02551      4.41358        -0.025931      0.005282      0.013869
O	      6.07046      6.05182      0.10251        -0.025558      0.005246      0.013893
O	      8.09966      8.05468      4.41963        -0.038590     -0.007650      0.004062
O	     10.18124      2.00210      0.08101         0.082520     -0.004488      0.065068
O	     12.22044      4.03877      4.35411         0.047696     -0.002003      0.039751
O	     10.18322      6.06509      0.04304         0.047151     -0.001976      0.039412
O	     12.21977      8.04202      4.40484         0.082476     -0.004466      0.065378
O	      4.07421      2.01716      2.06110        -0.004936     -0.001018     -0.021715
O	      6.11940      4.01722      6.36753         0.007600     -0.003833      0.001766
O	      4.08218      6.04353      2.05646         0.007936     -0.003905      0.001965
O	      6.11275      8.05708      6.38493        -0.004816     -0.001084     -0.021535
O	      8.13102      2.01306      2.16571        -0.030281     -0.002850     -0.022734
O	     10.15815      4.01855      6.46978        -0.029463     -0.005201     -0.030135
O	      8.12093      6.04486      2.15871        -0.029889     -0.005202     -0.030472
O	     10.16956      8.05298      6.48954        -0.030219     -0.002848     -0.022651
O	     12.22160      2.05595      2.03731         0.120330      0.018258     -0.047692
O	     14.26010      3.97495      6.36177         0.101414     -0.018203     -0.030137
O	     12.22288      6.00126      2.05070         0.101487     -0.018053     -0.029531
O	     14.26014      8.09586      6.36114         0.120089      0.018401     -0.047521
O	      4.15793      4.01489      8.50346        -0.060940      0.001632     -0.034759
O	      2.10853      2.01204      4.21934        -0.050639     -0.013346     -0.034384
O	      4.14707      8.05195      8.54317        -0.050624     -0.013722     -0.034813
O	      2.12071      6.04120      4.19239        -0.060892      0.001242     -0.033858
O	      8.13909      4.01644      8.60008        -0.001984      0.023317     -0.010240
O	      6.09728      2.00608      4.27532        -0.008425     -0.014578     -0.047998
O	      8.13582      8.04599      8.59915        -0.008388     -0.014898     -0.048621
O	      6.10187      6.04275      4.28901        -0.001980      0.022969     -0.010047
O	     12.17276      4.01563      8.57254         0.001944      0.001819      0.016399
O	     10.14597      2.00453      4.26523        -0.001022     -0.000841      0.011861
O	     12.18451      8.04444      8.58906        -0.001067     -0.000840      0.011408
O	     10.13553      6.04194      4.26147         0.002039      0.001810      0.016772
O	      2.02784      4.02847      2.22879        -0.030158      0.012167      0.016355
O	      4.12315      6.03788      6.53824        -0.046456     -0.000112      0.025030
O	      2.08593      8.06420      2.22717        -0.046696      0.000182      0.024449
O	      4.06638     10.06838      6.55262        -0.030049      0.012456      0.016316
O	      6.11508      4.02558      2.19053        -0.009383      0.000647      0.020654
O	      8.14870      6.03970      6.53010        -0.014538      0.006134      0.046763
O	      6.11148      8.06601      2.21904        -0.014515      0.005741      0.046291
O	      8.15362     10.06549      6.51435        -0.009371      0.000215      0.020736
O	     10.17105      4.03099      2.35946        -0.000353      0.003986      0.012318
O	     12.15002      6.03082      6.68374         0.015386      0.003503      0.012647
O	     10.11280      8.05713      2.37267         0.015311      0.003559      0.012160
O	     12.20959     10.07090      6.68329        -0.000255      0.003992      0.012841
