# total energy = -711.43406705 eV
 
CRYSTAL
PRIMVEC
12.164355 -0.001681 0.002074 
0.001562 8.120374 0.015984 
4.055087 4.044140 8.589690 
PRIMCOORD
92 1
Li	      2.04998      4.07241      0.01890         0.000496      0.002729      0.007461
Li	      4.05132      6.08405      4.38517         0.004690      0.001591      0.030117
Li	      2.05108      8.11220      0.02672        -0.001075     -0.001996      0.006391
Li	      4.04325     10.14471      4.33196         0.002007     -0.004092      0.008305
Li	     10.13989      8.10448      8.58440        -0.001981      0.006561      0.003980
Li	     10.13863      4.04712      8.57658        -0.000923     -0.003409      0.001910
Li	      8.17881     10.14374      4.39463        -0.003823      0.000579      0.018806
Li	     14.16157      8.11973      8.54377         0.003910     -0.009201     -0.020935
Li	     14.16124      4.03073      8.53662        -0.000222      0.012617     -0.023442
Li	     12.10745     10.14317      4.37838         0.004483      0.001432     -0.009112
Li	      4.06802      4.06803      2.13362        -0.008151      0.000565     -0.007635
Li	      6.07704      6.08030      6.43444        -0.002708     -0.000738      0.014959
Li	      4.06832      8.10874      2.14173        -0.007819     -0.004142     -0.008707
Li	      6.10199     10.14043      6.38394        -0.016126     -0.003437      0.009984
Li	      8.13678      4.08026      2.20174        -0.009591     -0.004192      0.000853
Li	      8.13808      8.09448      2.21059        -0.013140      0.006145     -0.004602
Li	     12.13414      4.08589      2.24361         0.016184     -0.008463      0.009724
Li	     14.19317      6.07877      6.40576         0.000846     -0.000574      0.004797
Li	     12.13473      8.08766      2.25144         0.014695      0.006765      0.004177
Li	     14.17309     10.13943      6.35627         0.009618     -0.003404     -0.005522
Ti	      1.99483      2.02837      2.15959        -0.032234     -0.002700     -0.027434
Ti	      4.05727      4.03565      6.48813         0.001309     -0.015890     -0.039442
Ti	      1.98981      6.08776      2.24665        -0.042736      0.006933     -0.051479
Ti	      4.05785      8.12451      6.49783        -0.000548      0.020644     -0.039287
Ti	      6.10042      2.02830      2.23618        -0.001013     -0.007304     -0.014276
Ti	      8.17933      4.10094      6.42753         0.041268      0.028788     -0.029261
Ti	      6.12790      6.08775      2.30471         0.034805      0.002616     -0.014064
Ti	      8.18200      8.05871      6.43606         0.026545     -0.029546     -0.018968
Ti	     10.16089      2.02688      2.09734         0.047460      0.001582      0.019699
Ti	     12.08768      4.10537      6.40993        -0.048680      0.028422     -0.026171
Ti	     10.16218      6.08718      2.13346         0.029015      0.001609     -0.006183
Ti	     12.08686      8.05219      6.41732        -0.029157     -0.030581     -0.021615
Ti	     12.15662      2.03031      0.05489         0.031510      0.004444      0.046532
Ti	     14.13943      4.10370      4.27509        -0.032608      0.035708      0.031600
Ti	      4.06500     10.13738      8.55410         0.022817     -0.009341      0.060064
Ti	     14.13906      8.06237      4.28207        -0.024147     -0.040480      0.031135
Ti	      8.13305      6.07651      8.53665        -0.036207     -0.001302      0.011291
Ti	      6.14087      4.10532      4.30375         0.045864      0.058659      0.051802
Ti	      8.14251     10.13637      8.50407        -0.016263     -0.000317     -0.010694
Ti	      6.14237      8.06282      4.30959         0.034133     -0.058112      0.052568
Ti	     12.14630      6.07521      8.54384         0.019455      0.000592     -0.011303
Ti	     10.12893      4.13034      4.43244        -0.023766      0.023807      0.058397
Ti	     12.10767     10.13574      8.47352        -0.004892      0.003582     -0.012798
Ti	     10.13004      8.03671      4.43990        -0.023074     -0.018177      0.048267
O	      2.05913      2.03240      0.05851         0.021658     -0.003618     -0.005547
O	      4.05520      4.06562      4.38497        -0.002221      0.000398     -0.025818
O	      2.05589      6.09190      0.08574         0.013016     -0.002510     -0.001885
O	      4.05594      8.10331      4.39445         0.001589     -0.003946     -0.026682
O	      6.07455      2.03176      0.16430         0.002121     -0.001177      0.021281
O	      8.10427      4.00555      4.35297        -0.026230      0.017637     -0.010593
O	      6.07356      6.09089      0.17689         0.010775     -0.001771     -0.009210
O	      8.10399      8.16232      4.36166        -0.018739     -0.019216     -0.010593
O	     10.10862      2.03148      0.01820        -0.032979     -0.006427      0.008395
O	     12.16896      4.01115      4.34362         0.022860      0.014818      0.001591
O	     10.10972      6.09114      0.05382        -0.026408     -0.004244      0.014514
O	     12.17025      8.15528      4.35107         0.022886     -0.010563      0.003860
O	      4.07784      2.02815      2.08974         0.001128     -0.004656      0.015667
O	      6.06184      4.04660      6.41430        -0.002583     -0.008013      0.007676
O	      4.07616      6.08871      2.07735         0.001479     -0.000295      0.022127
O	      6.06157      8.11285      6.42047         0.003202      0.003040      0.006980
O	      8.08743      2.02720      2.06964        -0.007644     -0.002761      0.009683
O	     10.13639      4.08349      6.44870         0.005476     -0.000434     -0.035730
O	      8.08906      6.08759      1.98002        -0.022546      0.003896      0.004508
O	     10.13688      8.07375      6.45716        -0.000476      0.002960     -0.034906
O	     12.16994      2.02638      2.15177        -0.007409      0.001385     -0.001902
O	     14.20869      4.04496      6.38664        -0.002360     -0.002439      0.013756
O	     12.17584      6.08721      2.06110        -0.001861      0.001332      0.022399
O	     14.21058      8.11260      6.39402        -0.005322     -0.004546      0.010326
O	     16.21083      4.05829      8.57834         0.007608     -0.005113     -0.007202
O	      2.03900      2.02457      4.22915        -0.014975      0.000766      0.010077
O	     16.21135      8.09191      8.58580         0.005983      0.001747     -0.002242
O	      2.08215      6.08460      4.30362        -0.009396     -0.003871      0.007955
O	      8.12330      4.04040      8.53976         0.019863      0.018218     -0.015758
O	      6.07822      2.02428      4.26524         0.027914      0.001485     -0.018000
O	      8.12402      8.11242      8.54832         0.019295     -0.007994     -0.019102
O	      6.03997      6.08385      4.34157         0.018889     -0.004808     -0.020280
O	     12.15244      4.04032      8.51505        -0.012500      0.022197     -0.015514
O	     10.12623      2.02233      4.12416        -0.001404      0.004356     -0.005849
O	     12.15350      8.11045      8.52220        -0.016101     -0.016498     -0.010768
O	     10.11405      6.08357      4.11754         0.009009     -0.006466     -0.101844
O	      2.02341      4.04219      2.19363        -0.004345     -0.004186     -0.001470
O	      4.05646      6.07994      6.52776        -0.000810      0.000986     -0.030671
O	      2.02442      8.13389      2.20178         0.000480      0.008799     -0.000527
O	      4.05776     10.14060      6.45987         0.006124      0.004031      0.010500
O	      6.09508      4.04425      2.23884        -0.001859     -0.023510      0.003998
O	      8.04889      6.07977      6.51350         0.023929      0.000934      0.055207
O	      6.09579      8.13159      2.24661         0.000216      0.027086      0.004536
O	      8.06123     10.13987      6.50983         0.035736      0.002590     -0.013543
O	     10.13839      4.05800      2.22932         0.002959      0.033009     -0.005684
O	     12.21876      6.07885      6.50407        -0.036159      0.005449      0.039701
O	     10.13852      8.11599      2.23753         0.009532     -0.031807     -0.011100
O	     12.20935     10.13878      6.47855        -0.049627      0.004778      0.017794
