# total energy = -711.42551209 eV
 
CRYSTAL
PRIMVEC
12.220169 -0.001997 -0.018261 
0.001316 8.095362 0.015960 
4.059425 4.031502 8.594544 
PRIMCOORD
92 1
Li	      6.06318      8.08048      8.55644        -0.006985     -0.002427     -0.033004
Li	      4.03705      6.06318      4.33436         0.008828     -0.001757     -0.012396
Li	      6.06283      4.03048      8.54667        -0.001448      0.007860     -0.034677
Li	      4.03687     10.11088      4.34486         0.006679     -0.001360     -0.015706
Li	     10.19728      8.07826      8.54250        -0.002272      0.003216     -0.009203
Li	      8.13212      6.06316      4.32676         0.006649      0.000479      0.012960
Li	     10.19595      4.03182      8.53361        -0.003508      0.000155     -0.009482
Li	      8.13414     10.11019      4.33423         0.012009     -0.002175      0.012296
Li	     14.21668      8.07841      8.53406         0.002134      0.001907     -0.001621
Li	     14.21631      4.03093      8.52661        -0.000233      0.002313     -0.002315
Li	      4.04181      4.04396      2.21472         0.007001     -0.001328      0.009769
Li	      6.10707      6.05909      6.42851        -0.005419     -0.000745     -0.010151
Li	      4.04220      8.09020      2.22179         0.005968      0.005400      0.008372
Li	      6.10596     10.10700      6.43763        -0.007573     -0.002136     -0.010605
Li	      8.17480      4.04209      2.19912        -0.000775      0.007469      0.031271
Li	     10.20090      6.05850      6.42128        -0.010243     -0.001914      0.017242
Li	      8.17734      8.09167      2.20719         0.004343     -0.001369      0.031004
Li	     10.20231     10.10749      6.42689        -0.006572     -0.004153      0.016033
Li	     12.24356      4.04233      2.20117        -0.002779      0.000548      0.002221
Li	     12.24295      8.08925      2.20924        -0.005911      0.004493      0.002328
Ti	      2.04874      2.02022      2.10050         0.022119     -0.002900      0.077150
Ti	      3.97790      4.03700      6.42524         0.002021      0.006241     -0.085085
Ti	      2.04946      6.06777      2.10943         0.020171      0.001201      0.087050
Ti	      3.97805      8.08194      6.43406        -0.001296     -0.005609     -0.080489
Ti	      6.08272      2.01950      2.12383        -0.032160     -0.001066     -0.017849
Ti	      8.14393      4.03390      6.48091        -0.021272      0.012048     -0.121141
Ti	      6.08312      6.06704      2.12925        -0.016587     -0.000845     -0.007050
Ti	      8.14340      8.08451      6.49259        -0.017304     -0.013911     -0.124871
Ti	     10.24935      2.02166      2.25979         0.008044     -0.010524      0.028657
Ti	     12.27136      4.03463      6.32341         0.028339      0.009471     -0.000276
Ti	     10.24891      6.06368      2.26881         0.001172      0.007736      0.023243
Ti	     12.27299      8.08317      6.33231         0.024951     -0.001299     -0.002369
Ti	     16.21157      6.05365      8.46744        -0.002527      0.001151     -0.017441
Ti	     14.18745      4.03766      4.40441        -0.038370     -0.002761     -0.001569
Ti	     16.21089     10.10237      8.47649        -0.006735     -0.005382     -0.014307
Ti	     14.18758      8.08629      4.41249        -0.039837     -0.009658     -0.004781
Ti	      4.09436      2.02411      0.03299         0.035825     -0.002430     -0.007604
Ti	      6.09478      4.03807      4.26637         0.024929      0.007173      0.114057
Ti	      4.09511      6.07046      0.03866         0.045130      0.006324      0.002520
Ti	      6.09577      8.08835      4.27183         0.027239     -0.013174      0.115782
Ti	      8.13151      2.02303      0.04807        -0.026095     -0.002231     -0.078905
Ti	     10.26035      4.04127      4.31970        -0.001569     -0.006791      0.092360
Ti	      8.13258      6.07105      0.05670        -0.031087      0.000393     -0.065625
Ti	     10.26222      8.08432      4.32996        -0.002162      0.007127      0.083279
O	      1.99191      2.02407      0.02853        -0.026931     -0.004097      0.055511
O	      4.08074      4.03902      4.33716        -0.010745     -0.004602      0.014414
O	      1.99262      6.07170      0.03866        -0.023591     -0.004268      0.042765
O	      4.08297      8.08761      4.34662        -0.016661     -0.000165      0.009479
O	      6.11722      2.02380      0.01754         0.012760     -0.000232      0.051484
O	      8.12616      4.03961      4.36902         0.014641     -0.004522     -0.024828
O	      6.11741      6.07124      0.02380         0.012856     -0.003111      0.050858
O	      8.12522      8.08661      4.37994         0.014188     -0.001504     -0.027414
O	     10.18351      2.02249      0.16389         0.030360      0.003057      0.039348
O	     12.21547      4.03808      4.32164        -0.000322     -0.000383      0.067283
O	     10.18457      6.07116      0.17192         0.026362      0.004854      0.036988
O	     12.21609      8.08537      4.33019         0.000534     -0.003181      0.071328
O	      4.06387      2.01891      2.13813        -0.025004     -0.000192     -0.044518
O	      6.11291      4.03563      6.37746        -0.017063     -0.004864      0.030547
O	      4.06406      6.06734      2.14467        -0.026712      0.000389     -0.044438
O	      6.11425      8.08256      6.38441        -0.015407      0.000835      0.032393
O	      8.18671      2.01973      2.11896         0.025368     -0.001483     -0.045481
O	     10.15757      4.03489      6.40889         0.013627     -0.005338     -0.012345
O	      8.18760      6.06659      2.12870         0.024931     -0.002443     -0.055526
O	     10.15676      8.08326      6.41666         0.017034      0.000758     -0.010071
O	     12.21395      2.01839      1.96962        -0.017827      0.003991     -0.045479
O	     14.24236      4.03513      6.40591         0.006780      0.000546     -0.069629
O	     12.21463      6.06565      1.97796        -0.015040      0.001256     -0.046064
O	     14.24371      8.08212      6.41457         0.006441      0.002870     -0.071188
O	      4.03465      4.03150      8.50796        -0.024224      0.005692     -0.032667
O	      2.07234      2.01586      4.10991         0.003149      0.004336     -0.061455
O	      4.03507      8.08061      8.51574        -0.020648      0.003830     -0.036748
O	      2.07315      6.06343      4.11764         0.004815      0.009199     -0.063906
O	      4.06703      0.00072     -0.00587         0.003611     -0.004825     -0.023996
O	      6.10599      2.01553      4.25501        -0.000786      0.004303     -0.026430
O	      4.06727      4.04675      0.00436         0.003534      0.003351     -0.020328
O	      6.10611      6.06226      4.26003        -0.000618      0.006266     -0.025234
O	     12.20480      4.03124      8.52413         0.001462     -0.001863      0.023472
O	     10.12800     10.10867      4.31176         0.044799      0.003880     -0.074942
O	     12.20546      8.07860      8.53184         0.002903      0.006455      0.023575
O	     10.12776      6.06416      4.30744         0.045163     -0.000794     -0.065572
O	      2.03408      4.04346      2.22090        -0.002929      0.007442     -0.029362
O	      4.11068      6.05998      6.44674        -0.047006     -0.002226      0.069840
O	      2.03447      8.09164      2.22982        -0.001949      0.002041     -0.030336
O	      4.11206     10.10740      6.45873        -0.050700     -0.003913      0.063448
O	      6.11219      4.04352      2.15764        -0.006654      0.002818      0.032285
O	      8.13369      6.05844      6.49512        -0.004125      0.001097      0.033222
O	      6.11339      8.09033      2.16578        -0.007618     -0.000700      0.025926
O	      8.13360     10.10775      6.50072        -0.002244     -0.002195      0.030366
O	     10.20421      4.04163      2.23646         0.018191      0.002077      0.026046
O	     12.16453      6.05927      6.63641         0.003453     -0.007223      0.062999
O	     10.20425      8.09131      2.24961         0.022684     -0.001394      0.035493
O	     12.16585     10.10681      6.64439         0.002321     -0.010588      0.059814
