# total energy = -664.23087815 eV
 
CRYSTAL
PRIMVEC
11.747680 0.000231 0.000953 
0.002754 7.885191 0.016141 
3.915192 3.923790 9.365782 
PRIMCOORD
78 1
Li	     11.75548      5.92330      4.70717         0.012896      0.000204     -0.005150
Li	      9.79651      0.01881      0.01621         0.012880      0.000183     -0.005123
Li	      7.83587      3.93240      2.34751        -0.012828     -0.004250      0.007523
Li	      9.79484      9.83689      7.03847        -0.012855     -0.004280      0.007533
Li	     11.74096      3.93145      2.33391         0.013644     -0.004303     -0.019010
Li	     13.69993      9.83594      7.02487         0.013683     -0.004345     -0.019030
Ti	      2.00972      1.92930      2.37132         0.108854     -0.058894      0.004713
Ti	      3.99265      3.97364      7.04344         0.148264      0.053485      0.018024
Ti	      2.03643      5.95434      2.36862         0.148288      0.053487      0.018066
Ti	      3.96870      7.83379      7.06228         0.108877     -0.058899      0.004701
Ti	      5.82732      1.92630      2.37055        -0.110952     -0.060256      0.095779
Ti	      7.78177      3.97630      7.05603        -0.131749      0.047944      0.130573
Ti	      5.82555      5.95700      2.38121        -0.131759      0.047972      0.130574
Ti	      7.78629      7.83080      7.06152        -0.110937     -0.060239      0.095781
Ti	      9.79698      1.91378      2.36362        -0.017880     -0.065041      0.012513
Ti	     11.74253      3.99034      7.02218        -0.033510      0.054547      0.035381
Ti	      9.78631      5.97104      2.34736        -0.033488      0.054573      0.035412
Ti	     11.75595      7.81827      7.05458        -0.017896     -0.065036      0.012508
Ti	      0.05619      1.99066      0.00744         0.134176      0.051243     -0.080071
Ti	      2.02984      3.91631      4.67845         0.176545     -0.025672     -0.121141
Ti	      3.98881      9.82080      9.36941         0.176590     -0.025667     -0.121059
Ti	      2.01516      7.89515      4.69840         0.134185      0.051232     -0.080155
Ti	      7.83080      5.90016      9.36819         0.002333      0.012217     -0.024837
Ti	      5.85445      3.93106      4.66162        -0.034650     -0.017266     -0.048524
Ti	      7.81342      9.83555      9.35258        -0.034651     -0.017312     -0.048505
Ti	      5.87458      7.88086      4.69337         0.002351      0.012217     -0.024860
Ti	      7.76763      1.98955      0.00929        -0.138153      0.060291      0.026398
Ti	      9.72085      3.91727      4.70543        -0.164716     -0.033467      0.014624
Ti	      7.76463      5.89797      0.03061        -0.164707     -0.033456      0.014671
Ti	      9.72660      7.89404      4.70025        -0.138164      0.060296      0.026365
O	      1.96484      1.96942      0.38536        -0.058893     -0.013067      0.046212
O	      3.92197      3.93754      5.05173        -0.076127     -0.014148      0.050991
O	      1.96577      5.91824      0.37691        -0.076269     -0.014151      0.050946
O	      3.92381      7.87391      5.07632        -0.059008     -0.013055      0.046256
O	      5.86747      1.96687      0.35406         0.077844     -0.012010      0.033884
O	      7.82151      3.94411      4.98577         0.123954     -0.009414      0.019126
O	      5.86529      5.92481      0.31095         0.124069     -0.009418      0.019117
O	      7.82644      7.87136      5.04502         0.077806     -0.012003      0.033884
O	      9.79212      1.89685      0.37383         0.004519     -0.032416      0.071059
O	     11.75458      4.01770      5.01087        -0.008400      0.004848      0.091269
O	      9.79836      5.99840      0.33605        -0.008467      0.004831      0.091355
O	     11.75109      7.80134      5.06479         0.004621     -0.032414      0.071102
O	      3.91570      1.96909      2.00747         0.001927     -0.010093     -0.038790
O	      5.87891      3.92476      6.68141        -0.008669      0.023951     -0.034273
O	      3.92270      5.90546      2.00659        -0.008550      0.023951     -0.034276
O	      5.87467      7.87358      6.69843         0.001827     -0.010093     -0.038786
O	      7.82878      2.03957      2.00020         0.031466      0.024999     -0.090338
O	      9.78379      3.85169      6.68107         0.057684      0.006347     -0.113040
O	      7.82757      5.83239      2.00625         0.057774      0.006373     -0.113102
O	      9.78775      7.94406      6.69116         0.031531      0.025001     -0.090320
O	     11.75101      2.03655      2.02165        -0.073284      0.019033     -0.031476
O	     13.70581      3.86107      6.72172        -0.078617     -0.010541     -0.022425
O	     11.74959      5.84177      2.04690        -0.078746     -0.010511     -0.022427
O	     13.70999      7.94104      6.71261        -0.073270      0.019037     -0.031560
O	      3.87142      3.93176      9.03580        -0.042975      0.004056     -0.027804
O	      1.95996      1.96081      4.39002        -0.023009     -0.008237     -0.001851
O	      3.91893      7.86530      9.08098        -0.023014     -0.008112     -0.001997
O	      1.91520      5.91247      4.36098        -0.042961      0.004168     -0.027716
O	      7.81652      3.93250      8.99644         0.011993      0.017693     -0.106354
O	      5.86460      1.95856      4.32673         0.012780      0.002977     -0.075057
O	      7.82357      7.86305      9.01769         0.012797      0.003055     -0.075123
O	      5.86030      5.91320      4.32162         0.011975      0.017771     -0.106364
O	     11.80804      3.92997      9.01689         0.012901      0.038941     -0.077406
O	      9.79537      1.96332      4.37225         0.016313     -0.041479     -0.037787
O	     11.75435      7.86781      9.06322         0.016313     -0.041380     -0.037843
O	      9.85182      5.91067      4.34207         0.012909      0.039024     -0.077553
O	      1.90021      3.93413      2.71948        -0.036241     -0.002184      0.080695
O	      3.90935      5.90393      7.39355        -0.012701      0.013403      0.054294
O	      1.95314      7.88463      2.71872        -0.012704      0.013353      0.054490
O	      3.85918      9.83862      7.41044        -0.036245     -0.002220      0.080616
O	      5.93039      3.93732      2.69427         0.031087      0.005891      0.059390
O	      7.83842      5.90084      7.37403         0.014664     -0.005995      0.030577
O	      5.88221      7.88155      2.69921         0.014663     -0.006053      0.030659
O	      7.88936      9.84181      7.38523         0.031095      0.005850      0.059393
O	      9.78731      3.93681      2.67630         0.036181     -0.007319      0.033297
O	     11.73869      5.90248      7.33295         0.033307     -0.006037      0.039015
O	      9.78247      7.88318      2.65813         0.033292     -0.006255      0.038993
O	     11.74629      9.84130      7.36726         0.036187     -0.007460      0.033372
