# total energy = -662.54254591 eV
 
CRYSTAL
PRIMVEC
11.809171 -0.000862 0.002277 
0.002033 7.893831 0.015528 
3.937185 3.931701 8.183371 
PRIMCOORD
92 1
Li	      5.70658      7.60296      7.79569         0.457292      0.794915      0.839916
Li	      3.84213      5.70743      3.93217        -0.847127      0.024167      0.216908
Li	      5.70098      3.79601      7.78803         0.562866     -0.175000      1.086490
Li	      3.83962      1.89949      3.92390        -0.652938     -0.727703      0.416041
Li	      5.69667      3.80872      0.02222        -0.145275     -0.041866     -0.326360
Li	      7.59746      5.70437      3.96987         0.009263      0.002005      0.050997
Li	      5.70363      7.62007      0.02977        -0.614171      0.564643     -0.195999
Li	      7.60035      9.51862      3.97681        -0.001243      0.608125      0.218623
Li	      9.49307      3.80833      0.03928         0.055091     -0.083276     -0.551413
Li	     11.35819      5.70763      3.93085         0.571915     -0.017724     -0.230549
Li	      9.49273      7.61980      0.04681        -0.056119      0.710520     -0.566120
Li	     11.35665      1.89737      3.92197         0.486033     -0.802895     -0.054791
Li	      3.83987      3.80581      2.01997        -0.594342     -0.031538      0.150337
Li	      5.70352      5.70157      5.90951        -0.046225      0.012634      0.442999
Li	      3.84162      7.61557      2.02982        -0.581270      0.689349     -0.015097
Li	      5.70613      9.51458      5.91404        -0.064909      0.629524      0.366117
Li	      7.59790      3.80467      1.97905        -0.030758     -0.058774      0.059597
Li	      9.49773      5.70176      5.92622         0.105638     -0.021980      0.403580
Li	      7.60013      7.61559      1.98433        -0.097472      0.606253     -0.176491
Li	      9.49762      9.51287      5.93178         0.109330      0.618385      0.124247
Li	     11.35853      3.80403      2.01962         0.936585     -0.016575     -0.194770
Li	     13.29216      5.70220      6.05292         0.704562      0.004574      0.202208
Li	     11.35717      7.61393      2.02764         0.857691      0.573074     -0.410535
Li	     13.29243      9.51188      6.05913         0.660302      0.560299     -0.094680
Ti	      1.90069      1.90153      1.98251        -2.885066     -0.624987      0.781954
Ti	      3.80668      3.79976      5.93125        -2.189458     -1.563835      1.027219
Ti	      1.90276      5.70900      1.99248        -3.027978     -0.017322      0.235004
Ti	      3.80782      7.60591      5.94420        -2.321283      0.766294      0.525301
Ti	      5.70707      1.90277      1.98567        -0.354591     -1.502309     -0.026115
Ti	      7.60497      3.79983      5.93642         0.541063     -1.747526      1.417122
Ti	      5.70812      5.70822      1.99111        -0.304928     -0.337584     -0.280028
Ti	      7.60766      7.60732      5.93744         0.520677      0.590279      1.449740
Ti	      9.48966      1.90146      1.98247         0.869693     -1.434971      0.329046
Ti	     11.38189      3.79890      5.92615         0.312316     -1.411980      0.780982
Ti	      9.48848      5.70872      1.99240         0.904978     -0.502773     -0.073460
Ti	     11.38045      7.60724      5.93911         0.560645      0.818343      1.228346
Ti	     11.38856      1.90648      0.00877         2.883751     -1.711423     -0.802351
Ti	     13.29635      3.80272      3.96203         3.078167     -0.198219     -0.723527
Ti	     11.39070      5.71394      0.01350         3.249053      0.325480     -0.968450
Ti	     13.29631      7.61142      3.96717         2.877271      0.575743     -1.032728
Ti	      3.81460      1.90098      0.01381        -0.611964     -1.994163     -1.409078
Ti	      5.70588      3.80228      3.95872        -0.551026     -1.705902      0.424285
Ti	      3.81661      5.71920      0.02070        -1.464795      0.232605     -1.802111
Ti	      5.70876      7.61294      3.96532        -1.198162      0.449636     -0.063530
Ti	      7.58975      1.90772      0.01029        -0.642129     -1.578576     -1.566626
Ti	      9.48940      3.80143      3.95650         0.043495     -1.781059      0.556418
Ti	      7.58970      5.71157      0.01625        -0.716638      0.583366     -1.999347
Ti	      9.49008      7.61209      3.96463         0.572608      0.479848      0.348446
O	      1.90081      1.90524      0.06153        -2.199894     -0.923686     -1.194182
O	      3.76620      3.80373      3.95733        -1.993164     -0.307891     -0.180678
O	      1.90110      5.71524      0.07070        -2.010615     -0.116489     -1.131110
O	      3.76642      7.61217      3.96849        -2.131769      0.252207     -0.406782
O	      5.69722      1.90466      0.01009        -0.262972     -0.604565     -2.031945
O	      7.59741      3.80306      3.96229        -0.048115     -0.593987     -1.188097
O	      5.69836      5.71428      0.01560         0.013916     -0.038154     -2.280581
O	      7.59819      7.61162      3.96711        -0.041122      0.091921     -1.506434
O	      9.49660      1.90547      0.00683         1.223115     -0.759693     -2.396254
O	     11.42986      3.80337      3.95410         0.232603     -0.330051     -1.370726
O	      9.49880      5.71334      0.01616         1.094985      0.224340     -2.751090
O	     11.43292      7.61098      3.96510         0.576828      0.270094     -1.338896
O	      3.76529      1.90173      1.98700        -0.407151     -0.578521      1.258655
O	      5.69981      3.79982      5.93516        -0.672748     -0.635715      1.884500
O	      3.76534      5.70892      1.99403        -0.384412      0.035724      1.153843
O	      5.69895      7.60797      5.94129        -0.577742      0.012352      1.760757
O	      7.59887      1.90068      1.98169         0.006185     -0.983456      1.243923
O	      9.49723      3.79856      5.93191         0.072679     -0.693525      1.933272
O	      7.60024      5.70974      1.98826        -0.051107      0.280730      1.165490
O	      9.49958      7.60716      5.94022         0.051941      0.084834      2.174380
O	     11.43054      1.89977      1.98414         1.947693     -0.630014      0.260260
O	     13.29500      3.79803      5.88297         2.753565     -0.493221      1.411096
O	     11.43122      5.70919      1.98880         2.063756      0.044222      0.166835
O	     13.29588      7.60807      5.88856         2.841242      0.046189      1.345212
O	      0.01318      7.61870      0.02467        -2.159243      1.133032     -0.616018
O	      0.01286      3.81051      0.01934        -2.121931     -0.155030     -0.539388
O	      3.79005      7.61827      0.03397        -0.367640      1.981454     -0.904625
O	      5.69803      9.51529      3.97530         0.203558      2.019507      0.702759
O	      3.78865      3.81033      0.01826        -0.214031     -0.428748     -0.754242
O	      5.69673      5.70840      3.96592         0.267099      0.034399      1.425232
O	     11.39688      3.79484      7.89378         1.533816     -0.484667      2.277375
O	      9.50173      9.51499      3.97122        -0.059159      1.979020      0.712781
O	      7.59786      3.80977      0.00912         0.018683      0.084994     -0.477832
O	      9.50079      5.70715      3.96290        -0.113353      0.086256      1.429195
O	      3.78812      5.70310      5.92912        -0.900621     -0.360704      0.971342
O	      3.79004      9.51315      5.93649        -1.011233      2.082632      0.973878
O	      5.69710      3.80615      1.98492         0.134676     -0.665353     -1.603338
O	      7.59798      5.70610      5.94244         0.164902     -0.446962      0.807663
O	      5.69755      7.61357      1.99439         0.340192      2.319672     -1.090343
O	      7.59845      9.50973      5.95048         0.226042      2.281380      0.897825
O	      9.49993      3.80558      1.98125        -0.055529     -0.627076     -1.937410
O	     11.40749      5.70171      5.92720         0.117972     -0.388164      0.607898
O	      9.50158      7.61332      1.99115        -0.277030      2.419168     -1.680320
O	     11.40928      9.51334      5.93403         0.244714      2.351444      0.698355
