# total energy = -667.77853617 eV
 
CRYSTAL
PRIMVEC
11.870358 -0.000867 0.002289 
0.002044 7.934731 0.015608 
3.957585 3.952072 8.225772 
PRIMCOORD
92 1
Li	      5.76588      7.68195      7.87668         0.364658      0.665280      0.728637
Li	      3.88205      5.76673      3.97303        -0.711515      0.023407      0.188585
Li	      5.76022      3.83545      7.86895         0.432706     -0.159742      0.921833
Li	      3.87952      1.91922      3.96466        -0.559516     -0.617761      0.355021
Li	      5.75585      3.84828      0.02244        -0.130849     -0.040397     -0.272870
Li	      7.67640      5.76363      4.01111         0.007532      0.003691      0.045558
Li	      5.76288      7.69923      0.03008        -0.489096      0.481151     -0.179430
Li	      7.67930      9.61751      4.01813        -0.002315      0.509104      0.192845
Li	      9.59171      3.84790      0.03969         0.054522     -0.076166     -0.467260
Li	     11.47620      5.76692      3.97169         0.477028     -0.006838     -0.200710
Li	      9.59134      7.69896      0.04729        -0.027525      0.583752     -0.474324
Li	     11.47464      1.91708      3.96272         0.411828     -0.671848     -0.051976
Li	      3.87976      3.84535      2.04095        -0.504398     -0.032898      0.136910
Li	      5.76278      5.76080      5.97091        -0.039562      0.014900      0.377358
Li	      3.88153      7.69470      2.05092        -0.490852      0.571863     -0.003223
Li	      5.76542      9.61343      5.97549        -0.056583      0.524268      0.309559
Li	      7.67684      3.84420      1.99961        -0.027436     -0.051042      0.043336
Li	      9.59641      5.76100      5.98780         0.092249     -0.017347      0.337894
Li	      7.67909      7.69471      2.00494        -0.084979      0.501270     -0.152626
Li	      9.59629      9.61171      5.99341         0.094812      0.513357      0.097586
Li	     11.47653      3.84355      2.04061         0.792419     -0.011402     -0.161817
Li	     13.43027      5.76144      6.11581         0.603562      0.005178      0.170851
Li	     11.47516      7.69303      2.04871         0.728088      0.483673     -0.344480
Li	     13.43054      9.61070      6.12208         0.572373      0.469687     -0.080903
Ti	      1.92044      1.92129      2.00311        -2.452359     -0.540116      0.596097
Ti	      3.84624      3.83924      5.99287        -1.838370     -1.246166      0.802028
Ti	      1.92253      5.76831      2.01318        -2.566692     -0.017325      0.138303
Ti	      3.84738      7.68493      6.00595        -1.948992      0.581261      0.362393
Ti	      5.76636      1.92254      2.00631        -0.302562     -1.205000     -0.081665
Ti	      7.68398      3.83931      5.99810         0.458177     -1.396770      1.142115
Ti	      5.76743      5.76753      2.01179        -0.254830     -0.292939     -0.250594
Ti	      7.68670      7.68636      5.99913         0.439484      0.453667      1.170971
Ti	      9.58825      1.92122      2.00307         0.771760     -1.146671      0.235803
Ti	     11.50015      3.83836      5.98772         0.278792     -1.142883      0.599826
Ti	      9.58706      5.76804      2.01311         0.803292     -0.441154     -0.072403
Ti	     11.49869      7.68629      6.00082         0.503057      0.657534      0.974568
Ti	     11.50688      1.92629      0.00886         2.491510     -1.486994     -0.607434
Ti	     13.43449      3.84223      4.00319         2.614906     -0.164557     -0.559790
Ti	     11.50905      5.77330      0.01364         2.803372      0.273591     -0.741948
Ti	     13.43444      7.69049      4.00839         2.455659      0.488316     -0.803181
Ti	      3.85424      1.92073      0.01396        -0.522984     -1.625311     -1.119601
Ti	      5.76515      3.84179      3.99985        -0.488685     -1.379548      0.351894
Ti	      3.85626      5.77862      0.02092        -1.238318      0.171945     -1.444691
Ti	      5.76808      7.69203      4.00652        -1.021660      0.357351     -0.009701
Ti	      7.66860      1.92753      0.01039        -0.568696     -1.237436     -1.325579
Ti	      9.58799      3.84093      3.99761         0.033435     -1.451035      0.454396
Ti	      7.66854      5.77091      0.01641        -0.615805      0.411534     -1.678710
Ti	      9.58867      7.69118      4.00583         0.477665      0.395961      0.319399
O	      1.92055      1.92504      0.06217        -1.860739     -0.743250     -0.985629
O	      3.80533      3.84324      3.99844        -1.658263     -0.259981     -0.108007
O	      1.92085      5.77462      0.07144        -1.709921     -0.099020     -0.937592
O	      3.80555      7.69125      4.00972        -1.799197      0.217377     -0.298637
O	      5.75641      1.92444      0.01020        -0.244456     -0.512344     -1.679084
O	      7.67634      3.84258      4.00346        -0.034096     -0.499270     -0.973082
O	      5.75756      5.77365      0.01576        -0.012544     -0.035466     -1.888057
O	      7.67713      7.69070      4.00833        -0.030694      0.078676     -1.247410
O	      9.59527      1.92527      0.00690         1.050074     -0.651653     -1.989384
O	     11.54861      3.84289      3.99519         0.201051     -0.272971     -1.105114
O	      9.59749      5.77269      0.01633         0.932631      0.191546     -2.279053
O	     11.55169      7.69005      4.00629         0.495678      0.228625     -1.095993
O	      3.80440      1.92148      2.00764        -0.345767     -0.486366      1.026936
O	      5.75904      3.83930      5.99682        -0.563568     -0.524407      1.549095
O	      3.80446      5.76823      2.01474        -0.342270      0.031398      0.935039
O	      5.75816      7.68702      6.00302        -0.478895      0.019401      1.441361
O	      7.67781      1.92043      2.00227         0.008835     -0.836526      1.012322
O	      9.59590      3.83803      5.99354         0.071415     -0.575555      1.598406
O	      7.67920      5.76907      2.00891        -0.044401      0.242195      0.946635
O	      9.59828      7.68620      6.00194         0.057898      0.080109      1.787822
O	     11.54930      1.91951      2.00476         1.628424     -0.521747      0.184983
O	     13.43312      3.83748      5.94409         2.321415     -0.417133      1.178740
O	     11.54998      5.76850      2.00946         1.733135      0.039574      0.108337
O	     13.43403      7.68711      5.94973         2.392789      0.040991      1.125389
O	      0.01330      7.69785      0.02492        -1.890503      1.024296     -0.587091
O	      0.01300      3.85011      0.01954        -1.866763     -0.154292     -0.509367
O	      3.82943      7.69742      0.03432        -0.296508      1.604191     -0.787765
O	      5.75722      9.61415      4.01660         0.188977      1.655921      0.603350
O	      3.82802      3.84992      0.01845        -0.173402     -0.343791     -0.639026
O	      5.75590      5.76771      4.00712         0.234966      0.053604      1.173709
O	     11.51528      3.83426      7.97579         1.274062     -0.436585      1.955321
O	      9.60044      9.61385      4.01248        -0.067283      1.622750      0.608838
O	      7.67680      3.84935      0.00922         0.006534      0.065461     -0.379135
O	      9.59949      5.76644      4.00407        -0.102018      0.095814      1.176192
O	      3.82747      5.76234      5.99072        -0.778116     -0.295404      0.812939
O	      3.82941      9.61199      5.99816        -0.879302      1.747072      0.862916
O	      5.75630      3.84570      2.00555         0.120024     -0.561708     -1.317361
O	      7.67693      5.76539      6.00419         0.154668     -0.377715      0.666122
O	      5.75674      7.69267      2.01511         0.287456      1.899955     -0.860708
O	      7.67740      9.60853      6.01231         0.206660      1.892996      0.786548
O	      9.59863      3.84512      2.00184        -0.063809     -0.524490     -1.607824
O	     11.52601      5.76095      5.98878         0.102661     -0.313403      0.518584
O	      9.60029      7.69241      2.01183        -0.254204      1.969054     -1.362808
O	     11.52781      9.61218      5.99569         0.209058      1.959671      0.609692
