# total energy = -91.80916868 eV
 
CRYSTAL
PRIMVEC
0.000019 4.084252 0.000012 
4.171825 0.000002 4.137700 
4.127455 0.000001 -4.092677 
PRIMCOORD
16 1
Li	      4.19899      0.00049      0.17737        -0.002724      0.000383      0.050795
Li	      6.22787      0.00042     -2.00831         0.021143      0.000757     -0.007415
Li	      4.14709      2.04265      2.03615        -0.007824      0.000301     -0.026061
Li	      6.22195      0.00063      2.06823        -0.016716     -0.001080      0.007969
Mn	      4.14239      0.00055      4.06113        -0.096014     -0.000352     -0.158450
Mn	      2.14376      2.04265      0.00824         0.195300     -0.000031      0.015648
Ni	      6.13981      2.04266      0.04442        -0.021491      0.000374      0.008648
Ni	      4.14255      2.04261     -2.00785         0.000539      0.000403      0.019975
O	      4.07371      2.04264      0.02391        -0.042080     -0.000039      0.125752
O	      6.32832      0.00053      0.02147         0.075313     -0.000254      0.005680
O	      2.18049      2.04269     -1.95214        -0.156990      0.000286      0.070261
O	      4.13114      0.00051     -2.20886        -0.010045      0.000053     -0.026029
O	      6.10930      2.04259     -2.12379         0.156160     -0.000234     -0.095490
O	      4.16186      0.00057      2.21299         0.004006     -0.000197      0.112155
O	      0.06642      2.04267     -0.01035         0.074506     -0.000024     -0.103352
O	      1.96832      0.00052     -0.00986        -0.173083     -0.000347     -0.000086
