# total energy = -658.16495754 eV
 
CRYSTAL
PRIMVEC
12.876249 -0.002233 0.006121 
0.001358 8.592571 0.017162 
4.295036 4.279595 8.924895 
PRIMCOORD
93 1
Li	      2.48656      4.72663      0.43953         0.448107     -0.418923     -0.480873
Li	      4.57384      6.79120      4.67397         0.366296      0.126521     -0.114770
Li	      2.47923      0.21550      0.44731        -0.066933      0.567476     -0.848681
Li	      4.57244      2.64699      4.66571         0.215134     -0.975335     -0.493675
Li	      6.75136      4.51187      0.03474         0.083673      0.310714      0.666580
Li	      9.01144      6.76397      4.70727         0.010093      0.016068     -0.043172
Li	      6.74017      0.43023      0.02751         0.495638     -0.774582      0.122085
Li	      9.01115      2.67297      4.69973        -0.077483     -1.080162     -0.163030
Li	     11.25772      4.51102      0.04763        -0.623217      0.025093      0.899209
Li	     13.46935      6.79062      4.71999        -0.896731     -0.230437      0.668604
Li	     11.27638      0.42998      0.04463        -0.232212     -0.281796      0.538197
Li	     13.46952      2.64351      4.71306        -0.952810     -0.630865      0.434546
Li	      4.51976      4.50766      2.33002         0.254394      0.080801      0.185616
Li	      6.77247      6.75397      7.03674        -0.585875      0.076816     -0.453578
Li	      4.50581      9.01753      2.37199         0.160790     -0.766417      0.598026
Li	      6.77188     11.26682      7.04641        -0.173619     -0.831108     -0.228735
Li	      9.01009      4.50714      2.31441        -0.086289      0.404706      0.309976
Li	     11.26428      6.74320      7.03418         0.228417     -0.032008     -0.200367
Li	      9.00440      9.01792      2.35745        -0.112493     -0.740030      0.747504
Li	     11.26650     11.27633      7.04296         0.127538     -1.076851      0.297675
Li	     13.51891      4.50559      2.25550        -3.407898      0.434841     -0.184534
Li	     15.77263      6.75465      7.15626        -2.872747      0.004276     -0.703054
Li	     13.53407      9.01742      2.37647        -3.371468     -1.257649     -0.167059
Li	     15.77389     11.26244      7.16235        -3.778462     -0.789232     -1.590410
Ti	      2.23678      2.24934      2.32879        11.156384      3.180857      0.684423
Ti	      4.54370      4.49926      7.06967         7.024838      3.603395     -1.204069
Ti	      2.23642      6.76600      2.33729         8.748898     -0.596372      1.094428
Ti	      4.54894      9.00956      7.08480         7.019563     -0.583578     -2.079141
Ti	      6.75362      2.25377      2.36930        -1.036929      2.336530     -0.297520
Ti	      9.01535      4.49846      7.04987        -0.355907      2.264043     -2.633306
Ti	      6.75496      6.75991      2.37777        -0.876006     -0.573725     -0.078033
Ti	      9.02232      9.00996      7.02401         0.078970      0.181575     -0.013299
Ti	     11.27824      2.21884      2.36298        -0.417195      3.657689      0.047515
Ti	     13.50270      4.49796      7.05737        -1.572582      1.687438     -2.639128
Ti	     11.27915      6.79323      2.37015        -1.275600     -0.475530      0.574211
Ti	     13.47532      9.00846      7.08709        -1.506171     -0.536150      0.468949
Ti	      0.22610      2.46467      0.45025         2.059918     -0.073352     -4.292634
Ti	      2.35491      4.50480      4.65658         2.317366      0.614887     -0.921362
Ti	      0.01118      6.77516      0.01462        10.806915     -0.365288      3.832987
Ti	      2.25767      9.01568      4.67196        13.511789     -0.181538     -0.629500
Ti	      4.49773      2.25257      0.01751         1.199216      3.018479      2.029381
Ti	      6.79176      4.50331      4.70304         0.345887      1.988006     -0.441419
Ti	      4.49818      6.77168      0.02522         1.723610     -1.064884      3.517806
Ti	      6.80623      9.01559      4.71036         0.061383     -0.650135      0.055981
Ti	      9.22052      2.43827      0.43923        -0.761863      0.726416     -2.699362
Ti	     11.19227      4.50421      4.66513        -0.534823      1.056097     -0.363599
Ti	      9.22263      7.01299      0.44749        -0.976544     -2.452517     -1.438139
Ti	     11.23850      9.01430      4.69297        -1.332791     -1.855961      1.178222
O	      2.47015      2.47212      0.44312         0.857922     -0.225592     -1.467646
O	      4.48941      4.50419      4.75046         0.100339      0.471079      0.600084
O	      2.47174      6.98052      0.45177         1.026129     -1.363031     -1.530361
O	      4.46201      9.01496      4.75978         1.381994      0.006181      0.702506
O	      6.76272      2.24811      0.03289        -0.424913      1.201436      2.288617
O	      9.00534      4.50408      4.71976         0.120060      0.537455      0.675309
O	      6.76297      6.77479      0.04223        -0.164783      0.612888      2.697202
O	      9.02330      9.01485      4.67708        -0.394170     -0.179096      1.032022
O	     11.26068      2.25228      0.01714        -1.430807      1.176546      2.865044
O	     11.26135      6.77018      0.02403        -7.551764      0.480254      2.078367
O	     13.57578      9.01410      4.75531       -12.133534     -0.164273      0.956103
O	      4.51074      2.25842      2.35446         1.036564      0.835848     -0.930921
O	      6.75927      4.49872      7.05346         0.879262      0.762171     -2.097082
O	      4.51186      6.75560      2.36230         1.285404      0.525322     -0.449385
O	      6.75163      9.00929      7.05049         1.026969      0.282700     -1.807077
O	      9.01651      2.25911      2.33436         0.033903      0.956978     -0.081854
O	     11.29087      4.49854      7.01274        -0.444927      0.828670     -1.924896
O	      9.01639      6.75399      2.34233        -0.547393      0.794306      0.621135
O	     11.28368      9.00960      7.04738        -0.209805     -0.347837     -1.468679
O	     13.50664      2.24679      2.36102       -10.492567      0.962387      1.673232
O	     15.75624      4.49865      6.92402        -7.260742      0.935934     -0.216651
O	     13.50819      6.76447      2.37121        -8.934929      0.238553      0.017240
O	     15.77701      9.00890      6.94045        -7.448801     -0.042515     -0.224117
O	      0.64203      0.43085      0.00751        -2.472037     -0.310099      1.297039
O	      0.63767      4.51341      0.01262        -2.304559      0.388651      1.889784
O	      4.50039      0.43106      0.01496         0.210522     -2.086004      1.590889
O	      6.77565      2.67393      4.70375        -0.014335     -2.021553     -0.468971
O	      4.71410      4.72537      0.45288        -1.037357      0.168724     -3.052623
O	      6.77548      6.76320      4.71073         0.095406      0.032250     -1.091665
O	      9.02063      0.42984      0.02589         1.092218     -0.363747      2.441805
O	     11.26291      2.26985      4.68320         0.223172      2.120021     -0.672324
O	      9.23944      4.72541      0.43928         0.158526     -0.830877     -2.071512
O	     11.26275      6.73781      4.69168         0.150952     -0.180610     -1.041764
O	      2.22215      4.50708      2.42621         3.128678      0.749636      1.576310
O	      4.50238      6.75387      7.04490         3.075153      0.377470      0.260899
O	      2.25267      9.01821      2.40705         3.240735     -2.745407      0.947146
O	      4.50307     11.26707      7.05459         3.371054     -3.469230     -2.289734
O	      6.75463      4.50702      2.37296         0.432589      0.272318      1.626683
O	      9.02507      6.75852      7.04749        -0.655642      0.371903     -0.076815
O	      6.75048      9.01772      2.38541         0.264671     -1.996465      0.671609
O	      9.02513     11.26136      7.05532        -0.350524     -2.876574     -1.775884
O	     11.30288      4.50634      2.40456         0.381247      0.322507      1.240001
O	     13.52086      6.77366      7.05084        -0.046497      0.779352      0.589016
O	     11.28283      9.01716      2.35437         0.218086     -3.308333      0.531239
O	     13.52134     11.24465      7.05863        -0.031638     -1.748592      0.321210
