# total energy = -692.24198389 eV
 
CRYSTAL
PRIMVEC
12.263094 -0.002126 0.005829 
0.001293 8.183401 0.016345 
4.090511 4.075805 8.499900 
PRIMCOORD
93 1
Li	      6.15110      8.16891      8.49382        -0.000349     -0.002243      0.000333
Li	      4.14861      6.15982      4.23943        -0.034606     -0.011896      0.001563
Li	      6.14445      4.07718      8.50086        -0.006832     -0.000195      0.012112
Li	      4.14857     10.19461      4.24750        -0.034887      0.010958      0.002083
Li	      6.12369      4.09239      0.03151        -0.002213      0.000528     -0.006298
Li	      8.17364      6.13512      4.26964         0.008837     -0.014554     -0.013505
Li	      6.11476      8.18394      0.04052         0.004465     -0.000866      0.013743
Li	      8.17461     10.21819      4.27836         0.008849      0.014601     -0.013494
Li	     10.21108      4.09163      0.04321        -0.003919     -0.000512      0.024526
Li	     12.21710      6.15929      4.28117         0.026529     -0.026492      0.008270
Li	     10.22924      8.18373      0.05605         0.000276      0.000033      0.008083
Li	     12.21848     10.19146      4.29046         0.022214      0.030285      0.004816
Li	      4.09954      4.08858      2.11340        -0.019603      0.000128     -0.006146
Li	      6.14282      6.12605      6.38253        -0.001599     -0.002589      0.011535
Li	      4.08690      8.17916      2.15146        -0.006438      0.001611      0.002535
Li	      6.14231     10.21934      6.39130         0.000694      0.001957      0.010774
Li	      8.17241      4.08810      2.09923         0.006599     -0.001725     -0.017430
Li	     10.21704      6.11628      6.38021         0.004668     -0.003003     -0.004165
Li	      8.16725      8.17952      2.13828        -0.008849     -0.001354     -0.005752
Li	     10.21904     10.22796      6.38817         0.001099     -0.000077     -0.002577
Li	     12.26206      4.08670      2.04580         0.006655     -0.002917      0.005684
Li	     14.30624      6.12666      6.49094         0.002468      0.005123     -0.013420
Li	     12.27579      8.17907      2.15553         0.009006      0.001029      0.006991
Li	     14.30738     10.21536      6.49646         0.003322      0.000468     -0.005976
Ti	      2.02884      2.04022      2.11229        -0.032024      0.014590      0.081160
Ti	      4.12127      4.08096      6.41240         0.022168      0.004453     -0.069147
Ti	      2.02849      6.13696      2.11999        -0.021060     -0.015264      0.080519
Ti	      4.12602      8.17194      6.42612         0.018816     -0.001284     -0.059458
Ti	      6.12575      2.04424      2.14903         0.021826      0.007829     -0.055969
Ti	      8.17719      4.08024      6.39443        -0.000511      0.002180     -0.054985
Ti	      6.12696      6.13144      2.15671         0.019079     -0.004445     -0.062471
Ti	      8.18351      8.17230      6.37099        -0.002243      0.002424     -0.033038
Ti	     10.22969      2.01255      2.14328         0.007485     -0.005419     -0.042915
Ti	     12.24735      4.07978      6.40124        -0.002915      0.001114     -0.093670
Ti	     10.23052      6.16166      2.14980         0.003131      0.002943     -0.046122
Ti	     12.22251      8.17094      6.42820        -0.024186      0.002305     -0.031893
Ti	      4.10081      6.11725      8.50353        -0.001888     -0.004638      0.061478
Ti	      2.13598      4.08598      4.22366         0.143888      0.002020      0.040039
Ti	      0.01015      6.14527      0.01326         0.001150      0.008237      0.058876
Ti	      2.04778      8.17748      4.23760        -0.006587     -0.005845      0.046975
Ti	      4.07957      2.04315      0.01588         0.000277     -0.000627      0.036879
Ti	      6.16032      4.08463      4.26579         0.031588     -0.002203      0.053621
Ti	      4.07999      6.14211      0.02288        -0.000729     -0.005756      0.049448
Ti	      6.17346      8.17741      4.27244         0.021269     -0.001254      0.034785
Ti	     12.25901      6.09329      8.49354         0.000949     -0.007949      0.051094
Ti	     10.15172      4.08545      4.23141        -0.021876     -0.010557      0.031662
Ti	     12.26093     10.24271      8.50103        -0.008319      0.003830      0.061403
Ti	     10.19366      8.17624      4.25665        -0.030727      0.002425      0.033346
O	      6.13623      6.12401      8.49706         0.012867      0.004246     -0.023481
O	      4.07202      4.08543      4.30880        -0.119778     -0.001225     -0.018485
O	      6.13766     10.21325      8.50491         0.008625     -0.005050     -0.026493
O	      4.04718      8.17684      4.31727        -0.020903      0.005189      0.026773
O	      6.13398      2.03910      0.02983        -0.012665      0.005870     -0.001353
O	      8.16811      4.08534      4.28095        -0.002749      0.001226     -0.010207
O	      6.13421      6.14493      0.03830        -0.012225     -0.004903     -0.008330
O	      8.18440      8.17673      4.24225        -0.007409     -0.002692      0.021105
O	     10.21377      2.04289      0.01554         0.007553      0.002608      0.002746
O	     10.21437      6.14076      0.02179         0.008839     -0.002758      0.010581
O	     12.31363      8.17606      4.31320         0.035949     -0.001431      0.023082
O	      4.09138      2.04846      2.13556         0.016122      0.003895     -0.028077
O	      6.13086      4.08047      6.39769         0.002039      0.003363     -0.022462
O	      4.09239      6.12752      2.14267         0.012916     -0.001175     -0.028539
O	      6.12392      8.17169      6.39501        -0.015689      0.003429     -0.004702
O	      8.17824      2.04908      2.11734        -0.016143     -0.000408      0.009464
O	     10.24115      4.08031      6.36076        -0.012138      0.000867      0.017332
O	      8.17814      6.12607      2.12457        -0.003386      0.005956      0.013511
O	     10.23464      8.17197      6.39218         0.018771     -0.004922     -0.015908
O	     12.25093      2.03791      2.14151        -0.001358      0.002732     -0.057107
O	     14.29137      4.08041      6.28029        -0.011805     -0.000438     -0.005918
O	     12.25233      6.13558      2.15076        -0.006578      0.003620     -0.059052
O	     14.31021      8.17133      6.29519        -0.003300      0.000168     -0.005810
O	     12.26272      8.18248      0.02793         0.003741      0.003570     -0.026237
O	     12.25752      4.09178      0.01701         0.008865     -0.003099     -0.039441
O	      4.08323      8.18470      0.02914         0.003819     -0.002655     -0.003323
O	      6.14694     10.21905      4.28200        -0.008354     -0.011469     -0.008210
O	      8.17155      8.16777      8.50591         0.018525      0.007111     -0.012372
O	      6.14557      6.13442      4.27277        -0.003357      0.007048     -0.008892
O	      8.18321      8.18359      0.03905        -0.018266     -0.002997     -0.003635
O	     10.21578      2.05883      4.24780        -0.007162     -0.001524     -0.028507
O	     12.27617      8.16781      8.49358        -0.019851     -0.003838     -0.027904
O	     10.21565      6.11140      4.25549        -0.000502     -0.000712     -0.025908
O	      2.01555      4.08806      2.20064         0.032708      0.006779      0.001849
O	      4.08379      6.12597      6.38993         0.011965      0.002122      0.026243
O	      2.04323      8.17978      2.18326         0.005390      0.000271     -0.016976
O	      4.08441     10.21956      6.39872         0.014296     -0.006625      0.027177
O	      6.12665      4.08801      2.15235         0.010493      0.003236     -0.006311
O	      8.18600      6.13018      6.39228        -0.008338     -0.004960      0.010439
O	      6.12287      8.17934      2.16364         0.003262      0.001636      0.031152
O	      8.18607     10.21440      6.39939        -0.000076      0.001943      0.010917
O	     10.25203      4.08738      2.18101        -0.033528      0.000469      0.008577
O	     12.26382      6.14392      6.39532        -0.002773      0.016803      0.032881
O	     10.23386      8.17883      2.13548        -0.017471     -0.002771      0.018317
O	     12.26425     10.19923      6.40239         0.004113     -0.015909      0.035596
