# total energy = -697.11452883 eV
 
CRYSTAL
PRIMVEC
12.494315 -0.001768 0.002440 
0.001579 8.340683 0.016173 
4.165347 4.153755 8.676901 
PRIMCOORD
94 1
Li	      2.20880      4.33824      0.18090        -0.173064     -0.176905     -0.251144
Li	      4.24226      6.37419      4.44836         0.516376      0.008029     -0.111362
Li	      2.20794      0.08476      0.17372        -0.175902      0.037691     -0.348223
Li	      4.24142      2.28779      4.43958         0.525678     -0.417853     -0.193145
Li	      6.37017      4.25489      0.00963         0.116116      0.113361      0.258016
Li	      8.49233      6.37427      4.32668        -0.001541     -0.005301     -0.149099
Li	      6.45276      0.08385      0.17310        -0.216330      0.036672     -0.288502
Li	      8.49186      2.12118      4.31835         0.004007      0.272924     -0.201774
Li	     10.61903      4.25470      0.03923        -0.243556      0.123689      0.536381
Li	     12.75440      6.37397      4.44336        -0.097017      0.007842      0.169667
Li	     10.61798      0.16786      0.02749        -0.270372     -0.384186      0.424341
Li	     12.75393      2.28651      4.43622        -0.091199     -0.390951      0.077713
Li	      4.23325      4.25063      2.23559         0.146054      0.058807     -0.214602
Li	      6.32785      6.36921      6.67341        -0.138746     -0.008998     -0.120643
Li	      4.23399      8.50424      2.24205         0.106128     -0.292412     -0.051357
Li	      6.32898     10.62253      6.68278        -0.083932     -0.363023      0.007682
Li	      8.49538      4.25125      2.18576         0.019891      0.039312     -0.013935
Li	     10.66553      6.37044      6.67794        -0.014197     -0.058145     -0.203670
Li	      8.49192      8.50533      2.19158         0.078205     -0.319207      0.100112
Li	     10.66632     10.62199      6.68604        -0.058940     -0.340365     -0.034455
Li	     12.75986      4.25032      2.20859        -0.581655      0.046681      0.004751
Li	     14.86678      6.36848      6.65704        -0.749638      0.009779     -0.390809
Li	     12.76520      8.50387      2.21613        -0.604329     -0.309562      0.150908
Li	     14.86724     10.62209      6.66435        -0.764906     -0.340694     -0.195179
Ti	      2.13020      2.12482      2.21590         1.768704      0.862611     -0.268820
Ti	      4.20988      4.24261      6.64876         2.563992      0.943338      0.223747
Ti	      2.13153      6.37809      2.22494         1.720805     -0.018295      0.144965
Ti	      4.21019      8.49679      6.65582         2.517002     -0.151171      0.255076
Ti	      6.36057      2.12352      2.22803         0.028591      1.009852     -0.207889
Ti	      8.49561      4.24195      6.68337        -0.130213      0.195880     -0.571129
Ti	      6.36065      6.37835      2.23564         0.044364     -0.426401      0.016024
Ti	      8.49778      8.49540      6.69148        -0.326256     -0.109659     -0.301847
Ti	     10.62520      2.11916      2.24182        -0.440828      0.910980      0.262561
Ti	     12.77959      4.24207      6.64863        -0.442353      0.864419     -0.114639
Ti	     10.62624      6.38263      2.24911        -0.527102     -0.257159      0.395573
Ti	     12.78096      8.49515      6.65827        -0.402828     -0.078919     -0.078580
Ti	      0.00464      2.13001      0.00471         2.491830      0.449087      0.941134
Ti	      2.37051      4.24847      4.46339        -2.160934      0.852109     -0.364948
Ti	      0.00462      6.38152      0.01243         2.082379     -0.131587      1.262520
Ti	      2.37283      8.50111      4.47239        -2.083490     -0.330702     -0.223572
Ti	      4.24847      2.12831      0.05528         0.391200      0.456531      0.840967
Ti	      6.33786      4.24703      4.39744         0.397541      0.308565      0.071528
Ti	      4.24954      6.38137      0.06426         0.498204     -0.234931      1.030395
Ti	      6.33751      8.50229      4.40573         0.120484     -0.729706      0.541520
Ti	      8.48846      2.12917      0.00807         0.016768      0.451115      1.254811
Ti	     10.65859      4.24753      4.40172        -0.001183      0.308880     -0.089269
Ti	      8.48873      6.38184      0.01604         0.072976     -0.260214      1.621055
Ti	     10.65763      8.50123      4.40220         0.296462     -0.685616      0.297867
O	      2.11905      2.12880      0.01497         0.764147      0.241461      0.968298
O	      4.26277      4.24732      4.43950         1.887571      0.218989      0.113428
O	      2.11938      6.38151      0.02256         0.771389      0.050767      1.075368
O	      4.26266      8.50231      4.44629         1.613102     -0.114336      0.183702
O	      6.37609      2.12837      0.01298         0.255122      0.283984      0.777349
O	      8.49446      4.24722      4.54320         0.064859     -0.046245      0.625259
O	      6.37739      6.38120      0.02163         0.330437      0.070524      0.920407
O	      8.49706      8.50027      4.55106         0.044685     -0.273395      0.576043
O	     10.61815      2.12883      0.03318        -1.446369      0.372878      0.427713
O	     12.73101      4.24673      4.43492        -0.680084      0.182086      0.544448
O	     10.61950      6.38064      0.04125        -1.426370      0.069834      0.545111
O	     12.73015      8.50064      4.44371        -0.415748     -0.119397      0.631007
O	      4.24652      2.12517      2.24925         0.312807      0.387545     -0.480513
O	      6.42475      4.24201      6.59412         0.520852      0.165192     -0.765911
O	      4.24725      6.37726      2.25738         0.307937      0.065959     -0.396607
O	      6.42662      8.49613      6.60141         0.469566     -0.135349     -0.661309
O	      8.49915      2.12316      2.22123        -0.107975      0.368443     -0.204219
O	     10.56613      4.24156      6.59839        -0.220205      0.174336     -0.786943
O	      8.50010      6.37893      2.22932        -0.088731      0.061652     -0.111928
O	     10.56684      8.49527      6.60414        -0.184771     -0.159110     -0.588924
O	     12.74126      2.12225      2.20930        -1.736528      0.463682      0.110501
O	     14.86746      4.24117      6.67629        -2.417649      0.346922     -0.501200
O	     12.74076      6.37848      2.21708        -1.577587      0.030505      0.197119
O	     14.86779      8.49494      6.68473        -2.303556     -0.065168     -0.480343
O	      0.09444      0.08513      0.16630         0.006152      0.347793     -1.257269
O	      2.36807      2.28792      4.43544        -0.979644     -0.904192     -0.237812
O	      0.09517      4.33905      0.17562         0.041407     -0.615177     -1.431544
O	      2.36895      6.37421      4.44297        -0.989364      0.004891     -0.416699
O	      4.33038      0.08439      0.14625        -0.446833      0.215862     -1.085403
O	      6.37754      2.12042      4.42723        -0.135350      1.004343     -0.501662
O	      4.33223      4.33821      0.15473        -0.427244     -0.540741     -1.292093
O	      6.37812      6.37384      4.43474        -0.094341     -0.183378     -0.649174
O	      8.56516      0.08489      0.17013        -0.383365      0.322525     -1.322980
O	     10.61935      2.12318      4.42749         0.053042      1.006904     -0.442700
O	      8.56592      4.33865      0.18140        -0.333961     -0.601207     -1.586045
O	     10.62014      6.37087      4.43608         0.032256     -0.212657     -0.624584
O	      2.13002      4.25210      2.24006         1.031072      0.280645      0.595041
O	      4.23632      6.36986      6.65032         0.485867      0.192384     -0.252178
O	      2.13148      8.50527      2.24825         1.029063     -0.933075      0.366601
O	      4.23717     10.62340      6.65822         0.546386     -1.202011     -0.614015
O	      6.37498      4.25100      2.22917         0.010046      0.227937      0.842057
O	      6.37496      8.50460      2.23718         0.049765     -0.972439      0.527843
O	     10.61081      4.25103      2.23753         0.051916      0.235755      0.931636
O	     12.75360      6.36849      6.65375        -0.048661      0.193681     -0.219061
O	     10.61224      8.50479      2.23526         0.049960     -0.959553      0.672343
O	     12.75455     10.62299      6.66163        -0.028319     -1.096241     -0.620887
