# total energy = -102.22619002 eV
 
CRYSTAL
PRIMVEC
-2.040899 4.169595 -2.041576 
1.956454 4.082063 1.952981 
5.996919 -0.042257 -1.997907 
PRIMCOORD
16 1
Li	      1.93364      3.96572      1.84653        -0.005298     -0.073191      0.333824
Li	      1.92866      1.96766     -0.03848        -0.033669     -0.248311      0.207791
Li	      3.83073      3.96783     -0.02669         0.411275     -0.013069      0.566220
Li	      3.82595      1.96999     -1.91190         0.223422     -0.378230     -0.158279
Ti	      1.78683      5.98437      0.01738         0.445097      1.743088      0.941257
Ti	      1.99303      3.99579     -2.06294        -2.077345     -0.514697     -1.836894
Ni	      5.74252      3.95796     -1.94520         0.997567     -0.282138     -0.526018
Ni	      3.85424      5.98117     -2.03859         1.150739      1.421816     -0.724642
O	      1.88737      5.86433     -1.93152        -0.590853      2.208013     -1.151219
O	      1.89233      4.11553     -0.11428         0.514201     -1.349674      1.450216
O	      1.85060      2.13323     -1.96687         0.852312     -2.175638     -0.019443
O	      3.78872      4.01600     -1.97398         1.734618     -0.797112     -0.332034
O	     -0.00898      5.96385     -0.07182        -2.121254      1.286609      0.211834
O	      0.03115      3.88707     -1.97325        -1.792161      0.418864     -0.603139
O	      5.77420      3.90031      0.01080         0.822823      0.095261      0.491862
O	     -0.01496      2.03518     -0.07626        -0.531474     -1.341591      1.148662
