# total energy = -91.75799015 eV
 
CRYSTAL
PRIMVEC
4.113793 0.000235 -0.000526 
-2.056075 4.191328 -6.160247 
-2.056922 4.164954 2.035939 
PRIMCOORD
16 1
Li	      2.05507      2.14272     -0.05828         0.003387      0.013643     -0.016027
Li	     -0.00025      4.40093     -0.03508        -0.001535      0.045649     -0.001877
Li	      0.00056      2.15252     -1.96276        -0.004500     -0.023915      0.009958
Li	      0.00140      6.21374     -2.01560        -0.003158      0.010122      0.026893
Mn	      2.05593      4.12005      1.95564         0.001159      0.071571     -0.065116
Mn	      2.05754      4.15535     -1.98000        -0.001975     -0.001657      0.119719
Ni	      0.00042      4.09823     -4.09127         0.001880     -0.015308     -0.010805
Ni	     -2.05665      6.19532     -4.14468        -0.001183      0.011033     -0.023350
O	     -2.05644      6.17028     -2.23282         0.003019     -0.120698      0.115847
O	     -2.05686      4.25195     -0.01513        -0.002402     -0.039550     -0.135454
O	     -0.00053      6.35106     -4.16189         0.005554      0.067776     -0.000343
O	     -2.05681      8.21482     -4.11322         0.000279      0.076705     -0.086979
O	     -2.05643      4.20835     -4.10713        -0.002521     -0.101522      0.075963
O	      2.05735      2.31953     -2.03159        -0.000298      0.046731     -0.007638
O	      0.00040      4.19453     -2.07981         0.000671      0.005258      0.127388
O	     -0.00115      1.84028      0.11980         0.001623     -0.045839     -0.128177
