# total energy = -210.15545809 eV
 
CRYSTAL
PRIMVEC
0.016516 6.185676 6.154896 
6.234342 0.007377 6.163894 
4.174788 4.148422 -0.013631 
PRIMCOORD
36 1
Li	      6.29487     10.27436      8.21973         0.053485      0.001824      0.004782
Li	      4.15260      6.18012     10.18684        -0.007601      0.010588     -0.006956
Li	      6.26920      8.31812     10.16219         0.024135      0.072173      0.024270
Li	      2.17720      4.12787      2.08123         0.061999     -0.030772      0.016863
Li	      4.19702      4.15567      4.01717         0.023000      0.027156     -0.129879
Li	      8.29732      6.17708     10.25964        -0.028590     -0.049412     -0.020426
Li	      2.14752      4.17226      6.19594         0.062247      0.012656     -0.023509
Li	      4.12753      6.14033      6.20546        -0.079260     -0.021087      0.001237
Li	      6.22573      6.25367      8.28507         0.037022     -0.010759      0.083083
Mn	      2.07903      2.04317      4.07889        -0.074725      0.066860     -0.056284
Mn	      6.24648      4.13834     10.23837         0.166837     -0.080472      0.167829
Cr	      8.31185      2.08294      6.15388        -0.086167      0.041954      0.066532
Fe	      0.10152      6.16748      6.17768        -0.124332      0.007676     -0.035735
Fe	      8.30369      6.22522      6.14302         0.056208      0.028294      0.012719
Co	      8.26933      8.34035      8.21441        -0.039074     -0.000149     -0.051779
Ni	      4.24831      8.22099      8.25318         0.133101     -0.161435     -0.237820
Ni	      4.16019      6.15398      2.06172         0.053859     -0.099601      0.009181
Ni	      6.22878      4.18790      6.13738        -0.006915     -0.029680      0.064688
O	      2.10917      2.06018      2.07192         0.029651      0.003950     -0.012053
O	      4.16252      4.09015      1.97171         0.044440      0.043662     -0.024290
O	      4.03826      2.10684      4.11203        -0.102000      0.005572      0.234527
O	      6.21240      4.30938      4.12922         0.001840      0.059905     -0.079503
O	      6.25314      2.07319      6.13603         0.051324     -0.095243     -0.130791
O	      8.32752      4.17232      6.19966         0.100254     -0.095635     -0.000323
O	      1.93532      4.02065      4.07197        -0.118303     -0.035435     -0.039254
O	      4.30499      6.29346      4.07759         0.030810      0.087623      0.123885
O	      4.19783      4.09387      6.33214        -0.071114      0.046960     -0.024594
O	      6.32253      6.21422      5.98074        -0.071074      0.126845     -0.017372
O	      6.06938      4.10741      8.30056         0.017418      0.082534      0.047377
O	      8.35617      6.38744      8.13570        -0.118192     -0.101560      0.093452
O	      2.03707      6.29777      6.12838         0.096315      0.045628     -0.041710
O	      4.10277      8.27837      6.08457         0.007940     -0.013523     -0.081234
O	      4.20166      6.05262      8.19280        -0.031121      0.049001      0.042034
O	      6.40802      8.24720      8.22430        -0.083777      0.048639      0.022424
O	      6.26175      6.02081     10.33125        -0.027724     -0.058192     -0.043350
O	      8.46856      8.25795     10.25707         0.018082      0.013457      0.041981
