# total energy = -224.71906218 eV
 
CRYSTAL
PRIMVEC
-0.017527 6.417467 6.293860 
6.196435 -0.012277 6.288860 
4.141633 4.285766 -0.019011 
PRIMCOORD
36 1
Li	     10.28370      4.35409      6.32937         0.005180      0.054786      0.004554
Li	      8.19352      2.24016      6.37090         0.021938      0.046253     -0.017580
Li	      4.06241      2.27041      2.18305         0.014149      0.027391     -0.024876
Li	      6.15362      2.18037      4.23342         0.033139      0.055850     -0.006614
Li	      2.14089      4.13061      2.03051        -0.058470     -0.029880      0.002690
Li	      2.17222      2.08587      4.13040        -0.027708     -0.011263      0.018531
Li	      4.17608      4.18947      4.11111         0.030460     -0.015467      0.031086
Li	      6.25253      4.19382      6.17303         0.011168     -0.042488     -0.027400
Li	      6.19532      6.45165      8.38304         0.020640      0.041447     -0.012329
Mn	      6.19445      4.27729     10.48184        -0.016272     -0.006472     -0.001849
Mn	      8.16060      6.40739     10.48579        -0.012650      0.016905     -0.009277
Cr	      4.14782      6.38816      2.08590         0.037003     -0.072723     -0.054964
Fe	      6.13394      4.33948      2.12275         0.096809     -0.064544      0.000036
Fe	      4.13230      0.07985      4.23076         0.103424     -0.057306     -0.047364
Fe	      4.17678      2.05047      6.24603        -0.166185      0.052945      0.049092
Fe	      6.17466      8.53292      6.28998         0.004333      0.006157     -0.068860
Fe	      4.19156      6.39761      6.26716        -0.004250     -0.052898     -0.023707
Fe	      4.11446      4.28627      8.37308         0.047224     -0.036778      0.092488
O	      1.99707      2.05015      2.10525         0.013928      0.057554     -0.031436
O	      4.18351      4.35773      2.07973        -0.132765      0.014731      0.023227
O	      4.15510      2.06020      4.27239         0.011627      0.117902     -0.146403
O	      6.32160      4.24529      4.08256        -0.105029      0.000092      0.098402
O	      6.11598      2.16786      6.41161         0.116274      0.004231      0.010383
O	      8.26741      4.35912      6.17820        -0.025927     -0.095024      0.160797
O	      1.92663      4.33818      4.25121         0.054341     -0.048533     -0.012170
O	      3.93258      6.33336      4.19872        -0.040436      0.055079     -0.037818
O	      4.10234      4.29501      6.33169         0.017114     -0.001611     -0.066904
O	      6.18424      6.50718      6.26488         0.029544     -0.046847      0.032005
O	      6.14659      4.14075      8.52365         0.059350      0.018619      0.008727
O	      8.27901      6.51735      8.33326         0.007989     -0.049230      0.106230
O	      2.14257      6.32855      6.31138        -0.065273      0.008063     -0.071630
O	      4.16602      8.41894      6.16748        -0.091892      0.053657      0.000460
O	      4.12603      6.33174      8.35703         0.014432      0.070732     -0.058895
O	      6.24684      8.65093      8.28196        -0.047236     -0.042754      0.074445
O	      6.23420      6.47162     10.47189         0.107281     -0.050999     -0.015391
O	      8.36333      8.59978     10.41249        -0.063252      0.022422      0.022314
