# total energy = -206.81240551 eV
 
CRYSTAL
PRIMVEC
-0.029861 6.118254 6.145576 
6.343426 -0.018600 6.135095 
4.239921 4.082901 -0.023149 
PRIMCOORD
36 1
Li	      6.32767      6.12227     12.10763         0.058945      0.053339     -0.088560
Li	      8.40531      2.07407      6.14337        -0.128271     -0.059180     -0.051746
Li	      4.33041      6.11523     10.28341         0.093270      0.028807      0.019808
Li	      6.32557      8.07101     10.30127        -0.026844     -0.047485      0.005703
Li	      0.07818      2.00185      2.05934         0.022248     -0.014415      0.017435
Li	      2.14180      2.02579      4.01965         0.002303      0.010204      0.094239
Li	      4.29144      1.94266      6.08449         0.004855      0.003333     -0.024946
Li	     10.45397      8.20284     10.25433        -0.016897      0.034302     -0.008981
Li	      8.36430      6.14636     10.19915        -0.041556     -0.036010      0.014040
Mn	      4.22960      4.05232      4.07619        -0.180251     -0.066094      0.149882
Mn	      6.39642      3.95933      6.09581         0.162516     -0.181246     -0.062345
Mn	      8.46260      8.10062      8.26290        -0.021272     -0.212447     -0.213227
Cr	      4.20177      6.15850      6.09134         0.126568     -0.039554     -0.054302
Co	      2.03795      4.09884      6.08259         0.139898     -0.306060      0.166026
Cu	      2.08145      0.07026      2.05535         0.087158     -0.236404     -0.075730
Ni	      4.17173      2.04382      2.06520         0.074942     -0.067097      0.079440
Ni	      2.07983      4.03356      2.07006        -0.237328      0.224328      0.122961
Ni	      6.32680      6.11116      8.23699         0.048346      0.134466     -0.216368
O	      6.33623      6.08978     10.09337        -0.046776     -0.016136      0.612194
O	      2.16191      1.98027      2.02901        -0.061407      0.146229     -0.051423
O	      4.11679      4.08343      2.19050         0.145664      0.113362     -0.018807
O	      4.25284      2.15915      4.05508         0.026560      0.068093      0.118638
O	      6.21119      4.08371      4.16865        -0.145257     -0.004468      0.094230
O	      6.33743      2.13842      6.14041         0.051130      0.193532     -0.016710
O	      8.25172      4.07455      6.19552        -0.215844     -0.032350     -0.257377
O	      2.28889      4.03745      4.16232        -0.160184      0.127577      0.287406
O	      4.23441      5.99684      4.15760         0.000181     -0.018207     -0.073092
O	      4.33540      4.11267      6.11039        -0.521268      0.052335      0.027150
O	      6.22485      6.15610      6.25588        -0.006654      0.207647     -0.289450
O	      6.23528      4.03087      8.07177        -0.127972     -0.125760     -0.088901
O	      8.26455      6.20994      8.15145         0.383226      0.065055      0.005032
O	      2.19411      6.00135      6.16224        -0.006947     -0.244024      0.077437
O	      4.26525      8.13163      6.16832         1.002676      0.105295     -0.110683
O	      4.35413      6.02565      8.14758        -0.277794      0.037712     -0.013971
O	      6.48643      8.25045      8.03610        -0.195193      0.104699     -0.165167
O	      8.44812      8.16741     10.04311        -0.012769     -0.003379     -0.009835
