# total energy = -206.91458726 eV
 
CRYSTAL
PRIMVEC
-0.007280 6.285554 6.238758 
6.008185 0.046820 6.185037 
4.047204 4.195544 -0.009904 
PRIMCOORD
36 1
Li	      0.03495      6.20558      6.12715        -0.033213     -0.013528     -0.035889
Li	      4.04734      8.37642      8.27059        -0.034475     -0.020667      0.022016
Li	     10.00662      6.37380      8.33432        -0.016246      0.016860     -0.019768
Li	      4.00565      4.26486      4.17313         0.015349      0.021359      0.061371
Li	     10.03215      8.45694     10.34931        -0.031287      0.016569      0.035387
Li	      7.99882      6.38428     10.28178         0.012994      0.054860     -0.056371
Li	      4.01246      6.30429      6.18219         0.045663     -0.049678      0.009376
Li	      4.01232      4.24130      8.24832         0.068657      0.044519     -0.063330
Li	      6.03612      6.27867      8.41110        -0.005675     -0.047713     -0.007166
Mn	      2.08750      8.35292      6.20994        -0.002406      0.070787      0.035756
Mn	      2.05896      4.23944      2.11027        -0.016962     -0.061867     -0.069171
Mn	      5.98533      6.29670      4.13945         0.043744     -0.042312     -0.057690
Cr	      6.00255     10.43589      8.27023        -0.020090      0.004087      0.131816
Co	      5.99569      4.23782      6.21589        -0.013971     -0.028001      0.054363
Ni	      4.07536      6.30140     10.31965        -0.079171     -0.023680      0.060231
Ni	      6.00302      8.35104     10.32993        -0.016999      0.051811     -0.042894
Ni	      4.04151      2.15480      6.22372         0.082941     -0.090631      0.020088
Ni	      6.01384      8.41087      6.19506         0.050238      0.023955     -0.120947
O	      2.01803      2.12041      2.08396        -0.027931     -0.032106     -0.006691
O	      4.04582      4.21711      2.06221         0.015584     -0.003155     -0.027984
O	      3.94485      2.04574      4.19079        -0.179961      0.143393     -0.098596
O	      6.03917      4.29928      4.15331        -0.099205      0.112267     -0.088492
O	      6.10382      2.33157      6.15162         0.172689     -0.034439      0.059766
O	      7.97542      4.14910      6.29224         0.034077     -0.055002      0.064365
O	      2.01184      4.05084      4.06227        -0.028876     -0.014976     -0.046877
O	      4.16779      6.30069      4.12470        -0.008725      0.012232      0.026177
O	      4.06388      4.14351      6.26022         0.094392      0.224819     -0.032291
O	      6.04523      6.23988      6.05999        -0.109832      0.021729     -0.089363
O	      6.14971      4.25202      8.10417         0.018066      0.007854      0.084929
O	      8.06046      6.13398      8.22194        -0.040762     -0.061317      0.162430
O	      1.97992      6.41342      6.34173         0.045546     -0.081950     -0.035227
O	      3.95976      8.38884      6.24194        -0.193134      0.001947     -0.009148
O	      3.80076      6.30585      8.33522        -0.108651      0.018522     -0.144607
O	      6.00993      8.55334      8.22489         0.023083      0.127028      0.113549
O	      6.01480      6.38432     10.34711         0.235793     -0.178199      0.011916
O	      8.02636      8.46005     10.51103         0.108754     -0.135378      0.098967
