# total energy = -193.15652340 eV
 
CRYSTAL
PRIMVEC
0.027976 6.349934 6.249251 
6.195762 0.005468 6.272455 
4.105124 4.223514 0.028600 
PRIMCOORD
36 1
Li	      6.12825      0.10754      6.17962         0.009765      0.007227      0.013732
Li	      6.13318      4.19950      2.20764        -0.058553     -0.021283      0.016481
Li	      8.30537     10.48670     10.58589        -0.090795     -0.079780      0.010975
Li	      6.18514      2.22822      4.32996         0.104234      0.060143      0.003439
Li	      6.09350      2.16343      8.27585         0.048487      0.010693      0.007732
Li	      6.09804      6.21519      4.30558         0.108826     -0.049762     -0.082406
Li	      8.35335      6.20382      6.39065        -0.003279     -0.080094     -0.100801
Li	      6.21572      4.14610      6.17927        -0.004350     -0.066702      0.030141
Li	      8.30625      8.36252      8.41182        -0.060908      0.048780      0.044375
V	      4.10544      2.01518      2.31748        -0.055761      0.176525      0.213425
Fe	      8.11423      2.18544      6.26092         0.041844     -0.042361     -0.424066
Co	      2.09156      4.27957      6.23165         0.022670      0.048505      0.083742
Cu	      4.13158      4.25278      4.21944        -0.006777      0.003769      0.084253
Cu	      6.19654      4.29732     10.39996         0.204378      0.049628     -0.062524
Cu	      4.15368      6.39426      6.21225         0.044494     -0.114664      0.249074
Cu	      6.24237      6.33852      8.33639        -0.049528      0.174427     -0.221739
Ni	      8.25595      4.26829      8.32825         0.020752     -0.061498     -0.017622
Ni	      8.26813      6.40330     10.42116        -0.056089      0.118085     -0.021935
O	      8.20275      6.32433      8.37471         0.099338      0.059221     -0.054682
O	      4.18449      6.51340      8.23659        -0.051487     -0.072309     -0.067073
O	      6.24291      6.27008     10.32089        -0.055033     -0.628081      0.103056
O	      2.29139      2.10030      2.00770         0.007745     -0.058974      0.044008
O	      4.10014      4.02451      2.32189         0.054164     -0.156195     -0.270753
O	      4.13441      1.88218      4.02685         0.019327      0.069914     -0.151546
O	      5.96686      4.22681      4.21608         0.358781      0.031293      0.009254
O	      6.25296      2.07072      6.30794        -0.230297     -0.089860      0.166319
O	      8.25104      4.12194      6.31502         0.104222      0.099877      0.018106
O	      2.20267      4.28240      4.26739        -0.094222      0.023044      0.130684
O	      4.13367      6.55813      4.22938         0.047610      0.424876     -0.226381
O	      4.03055      4.37838      6.11271        -0.227045      0.037291      0.172717
O	      6.16880      6.57379      6.32627         0.019381      0.069033     -0.054679
O	      6.22103      4.33962      8.41804         0.106799     -0.062515     -0.132370
O	      2.14633      6.27762      6.22519        -0.044164     -0.019494      0.098628
O	      4.24199      8.44332      6.24725         0.214332      0.097043      0.102672
O	      6.04116      8.44119      8.19451        -0.020268      0.034375     -0.039307
O	      8.31197      8.47237     10.49648        -0.528593     -0.040173      0.325071
