# total energy = -195.18661624 eV
 
CRYSTAL
PRIMVEC
0.048848 6.040453 6.307152 
6.290320 0.027189 6.328922 
4.193288 4.041102 0.018400 
PRIMCOORD
36 1
Li	     10.51305     10.06446     12.59710         0.005026      0.003997      0.071212
Li	      6.39781     10.07794      8.48606         0.098806     -0.046643     -0.007622
Li	      4.14973      2.04167      2.18801        -0.028386     -0.055881     -0.014163
Li	      4.29809      6.11373     10.50586        -0.086623      0.028678     -0.108926
Li	      6.37457      6.02418      4.31285        -0.023395     -0.010108      0.034918
Li	      8.32024      6.01224      6.28514        -0.021656      0.002691      0.044525
Li	      6.28613      4.11391      6.20334        -0.031090      0.021363     -0.029874
Li	      8.34555      6.05534     10.56217         0.034274     -0.010036     -0.012422
Li	      6.30365      6.06469      8.44362        -0.036158      0.023373     -0.092603
V	      8.25326      2.10697      6.25508        -0.151679     -0.201969      0.650695
Fe	      4.22022      6.01792      2.25423        -0.129860      0.009695     -0.165040
Co	      4.26503      6.06539      6.31429        -0.067386      0.196640      0.195643
Co	      4.22746      4.07295      8.40299        -0.347395      0.026197     -0.433373
Cu	      6.23809      8.00893     10.44002         0.019262      0.111326      0.077737
Cu	      8.39947      4.12661      8.48280         0.020209      0.069562      0.084710
Cu	      6.36282      4.11885     10.55151         0.049739     -0.103093      0.105740
Cu	      2.16259      4.03638      6.32847        -0.011867      0.019462      0.225816
Ni	      4.23483      3.99088      4.23044        -0.001227      0.263887     -0.070495
O	      4.25682      5.92669      8.22779        -0.031006     -0.048921      0.037597
O	      6.50601      8.05974      8.36815         0.343224      0.044522     -0.440476
O	      6.31734      6.04569     10.53251        -0.065511      0.421603      0.012530
O	      2.05700      2.10768      1.95167         0.049906     -0.042745     -0.091617
O	      4.11778      4.07842      2.18803        -0.023830     -0.060925     -0.213024
O	      4.26245      2.03559      4.21970         0.210664     -0.414950      0.034301
O	      6.11621      3.95726      4.20765         0.674166     -0.281572     -0.033996
O	      6.45525      2.00153      6.43806         0.295952      0.021583      0.134158
O	      8.39853      3.89076      6.30201         0.025371     -0.011781      0.042328
O	      2.33890      4.03546      4.32846        -0.826826      0.004037     -0.045942
O	      4.26743      6.08969      4.27824         0.011854     -0.037993      0.090890
O	      4.16497      4.16906      6.27440         0.339761     -0.005460      1.116377
O	      6.16826      6.12926      6.33078        -0.028363     -0.121721     -0.020055
O	      6.26422      4.02463      8.57132        -0.167907      0.049600      0.077941
O	      8.52382      6.13450      8.39703         0.085674      0.113098     -0.020065
O	      2.30227      6.18071      6.34544         0.073521      0.096381     -0.072617
O	      4.19414      8.00316      6.24612        -0.193166     -0.061539     -0.167249
O	      8.24638      8.08991     10.70342        -0.064080     -0.012356     -0.997557
