# total energy = -188.86323616 eV
 
CRYSTAL
PRIMVEC
0.002722 6.200367 6.170913 
6.205286 -0.013212 6.186783 
4.120925 4.128209 0.007300 
PRIMCOORD
36 1
Li	      6.17145      4.11753      2.10301        -0.007236     -0.050986     -0.019195
Li	      4.13230      8.26657      8.21170         0.072463     -0.046245     -0.021581
Li	      8.13596      4.09721      4.07334        -0.009881      0.041121     -0.015720
Li	      6.20565      2.17194      4.07230        -0.038830      0.075053     -0.034924
Li	      4.17535      6.14092      2.10041        -0.020779      0.026524     -0.010959
Li	      4.19998      4.19889      4.02723         0.001506      0.021109     -0.056567
Li	      6.22099      4.14173      6.05099         0.014343      0.013838     -0.047034
Li	      6.13503      8.29274      6.24429        -0.000058     -0.025711      0.064714
Li	      4.09918      6.25287      6.20694        -0.011613     -0.006366      0.051858
V	      4.20514      2.16145      6.01864         0.072614     -0.094183     -0.157261
Fe	      8.21347      8.31561      8.32151         0.100779     -0.225701      0.016182
Ni	      4.12081     10.28567      6.18480        -0.065278      0.033212      0.022801
Ni	      2.02925      2.04537      0.02405        -0.101112      0.090780     -0.016565
Ni	      2.08647      4.12223      2.06676        -0.062486      0.113713     -0.069687
Ni	      6.14930      6.18196      4.09982         0.080893     -0.062055      0.026228
Ni	      4.12576      8.22693      4.17599        -0.087603     -0.075822      0.007902
Ni	      2.09659      6.14592      4.17119         0.075552     -0.021760     -0.027679
Ni	      6.17399      6.19903      8.26055        -0.058789      0.094321     -0.016182
O	      2.06122      2.19155      2.05689         0.010180     -0.075052      0.054727
O	      4.05348      4.11521      1.90188         0.105284      0.026461      0.189578
O	      4.14318      2.06155      4.25584         0.051774      0.053179      0.065719
O	      6.14610      4.28659      4.07614         0.023532     -0.093343     -0.015892
O	      6.05322      2.04769      6.16388        -0.015936      0.077731      0.028121
O	      8.35683      4.18902      6.24979        -0.060605      0.047782     -0.119499
O	      2.09825      4.05888      4.04460         0.061759      0.036599      0.176835
O	      4.11577      6.31440      4.17256        -0.007019     -0.146822      0.002264
O	      4.18890      3.93555      6.28029         0.008974      0.141733     -0.103354
O	      6.44113      6.13438      6.17837        -0.041726     -0.018196     -0.001856
O	      6.17423      4.16225      8.41951         0.104782     -0.056622     -0.125765
O	      8.22202      6.15361      8.22711         0.049272     -0.068596     -0.062403
O	      1.90901      6.24507      6.17378         0.134249     -0.149637      0.100749
O	      4.06332      8.24573      6.05851         0.094507     -0.110263      0.156560
O	      4.19581      6.06914      8.20748        -0.033999      0.388722     -0.037294
O	      6.31468      8.19349      8.26845        -0.323578     -0.041397     -0.035063
O	      6.27756      6.00075     10.40546        -0.083576      0.099618     -0.072424
O	      8.23406      8.19513     10.31014        -0.032361     -0.012741      0.102665
