# total energy = -135.95505258 eV
 
CRYSTAL
PRIMVEC
-0.000048 -0.000008 3.956308 
6.237767 6.239095 -0.000062 
-4.199929 4.200820 -0.000002 
PRIMCOORD
24 1
Li	     -1.04725      3.14013      0.99104        -0.004605      0.061681     -0.002093
Li	      1.03901      1.05392      0.99071         0.063390     -0.006443      0.000211
Li	      0.99676      5.24131      0.99111        -0.024372      0.021731     -0.001287
Li	     -1.05851      7.29745      0.99085         0.018629     -0.024668      0.001612
Li	      3.09557      7.28229      0.99092        -0.061009      0.009663     -0.000067
Li	      5.18256      5.19583      0.99107         0.005311     -0.061028     -0.000526
Mn	      1.01036      3.11171      2.96904         0.044690      0.037743     -0.001420
Mn	      3.12516      5.22490      2.96902        -0.040644     -0.035876      0.000155
Mn	      3.08648      9.38839      2.96904         0.003394     -0.002204      0.002918
Ni	      0.99287      7.29343      2.96927        -0.013251     -0.015004     -0.000364
Ni	      5.18686      7.28751      2.96876        -0.003802      0.003221      0.001093
Ni	     -1.05712      5.24415      2.96889         0.013851      0.013324      0.001438
O	     -0.99026      3.14397      2.96861         0.060362     -0.016219      0.003463
O	      1.04299      1.11138      2.96878        -0.015590      0.059866      0.000849
O	      1.10478      5.13212      2.96896         0.095360     -0.097381      0.000667
O	      3.03173      3.20478      2.96921        -0.098285      0.096665     -0.002629
O	      3.09279      7.22512      2.96913         0.014483     -0.058156     -0.000702
O	      5.12575      5.19285      2.96928        -0.060454      0.015395     -0.001950
O	     -1.04309      5.25811      0.99082        -0.001092     -0.001388     -0.000147
O	      1.02717      3.12860      0.99088        -0.036050     -0.038242      0.001672
O	      0.97932      7.27951      0.99109         0.000542      0.000406      0.001245
O	      3.10880      5.20854      0.99096         0.035135      0.033731      0.001176
O	      3.08660      9.38824      0.99119         0.000982      0.001579     -0.004033
O	      5.18643      7.28777      0.99065         0.003026      0.001605     -0.001283
