# total energy = -197.39752377 eV
 
CRYSTAL
PRIMVEC
0.036362 6.354131 6.199352 
6.142418 0.016975 6.219735 
4.111649 4.267455 -0.006064 
PRIMCOORD
36 1
Li	      6.16247      6.36736     12.39335        -0.023990     -0.012313      0.033397
Li	      6.21517      8.43207     10.34011        -0.007082     -0.041554     -0.044430
Li	      8.21211      4.34607      8.24225         0.037727      0.037116     -0.006110
Li	      4.13652      4.28162      4.20337        -0.017036      0.000153     -0.043887
Li	      4.18126      2.23136      6.29805         0.004673      0.024310      0.068328
Li	      2.18784      4.28180      6.25058         0.037864      0.011950     -0.026840
Li	      4.08857      6.27807      6.23497         0.047884     -0.011095      0.061311
Li	      4.11880      4.18123      8.18739        -0.029805     -0.047533      0.031652
Li	      6.22099      6.40921      8.31895         0.009180      0.089694     -0.046509
V	      6.20444      6.48396      4.33029         0.227182      0.015426     -0.191995
Fe	      2.05768      6.32751      8.18788         0.214089      0.073195      0.140688
Fe	      4.19534      8.52245      8.18504        -0.271228      0.095045      0.402841
Co	     10.24069      6.38372      8.26352         0.003474     -0.211748      0.064556
Cu	      4.15682      6.35075     10.34127         0.195479      0.019100      0.003831
Cu	      6.09802      4.19278      6.23809         0.105824      0.216984     -0.007527
Cu	      6.16227      4.28078     10.32848         0.023787     -0.087960     -0.057029
Cu	      8.19215      6.40048     10.34937         0.042395      0.084731      0.222621
Cu	      8.15942      2.14595      6.19673        -0.010128     -0.054558      0.357643
O	      2.10650      6.44139      6.15263        -0.002219     -0.265632     -0.284734
O	      6.18967      6.27395     10.32784        -0.011688      0.013303     -0.010823
O	      8.28471      8.58167     10.42932        -0.057008     -0.308875     -0.231244
O	      1.97957      2.07020      2.04333         0.041056     -0.050165      0.054958
O	      4.16369      4.30723      2.07913        -0.152051      0.026658      0.015609
O	      3.91834      2.15471      4.05101         0.013534      0.171827      0.109325
O	      6.17869      4.50474      4.04901        -0.214974     -0.001024      0.210775
O	      6.16293      2.06896      6.36980        -0.114479     -0.228850     -0.169852
O	      8.01791      4.18205      6.09379        -0.047783     -0.005343      0.098173
O	      2.02078      4.02106      4.12882        -0.092686      0.177221     -0.091842
O	      4.25295      6.44493      3.99474        -0.077636      0.004606      0.039445
O	      4.25862      4.25101      6.20410        -0.232427      0.033868      0.007166
O	      6.17810      6.43325      6.05094         0.014546      0.079497      0.350832
O	      6.14666      4.00761      8.22981         0.047259      0.129466      0.000602
O	      8.34184      6.35283      8.42974        -0.157778     -0.040762     -0.146813
O	      4.02926      8.50112      6.30989         0.229538      0.044253     -0.703525
O	      4.10205      6.47546      8.38588         0.006616      0.043070     -0.191170
O	      6.12572      8.61531      8.28801         0.217893     -0.024059     -0.019423
