# total energy = -194.12819053 eV
 
CRYSTAL
PRIMVEC
-0.010144 6.549396 6.195550 
6.159361 0.016302 6.170359 
4.096363 4.339579 0.019906 
PRIMCOORD
36 1
Li	      1.99562      0.07913      2.04135         0.038373      0.010415      0.030707
Li	      6.07998      2.29538      4.23307        -0.062803      0.014072     -0.006063
Li	      4.15149      6.38327      2.15861         0.006590     -0.115118     -0.004843
Li	      6.07017      6.53601      4.13513         0.023913     -0.011492     -0.035885
Li	      4.16886      4.35096      4.20859         0.006213     -0.080446     -0.020275
Li	      4.20468      2.22432      6.07302         0.023413      0.058600     -0.037413
Li	      2.08428      6.49759      4.21027         0.043806      0.015009     -0.044845
Li	      2.01224      4.53453      6.01894         0.012970      0.030464      0.054634
Li	      4.03274      6.52433      6.07985        -0.022733      0.005859     -0.030925
V	      6.21337      6.70117      8.06231         0.052122      0.292138      0.224940
Fe	      3.98977      2.25267      2.15832         0.371919     -0.017639      0.030557
Fe	      4.12740      4.43540      8.20901        -0.152714     -0.008183     -0.011554
Cu	      0.04173      6.53738      6.22418         0.031185     -0.116645     -0.129233
Cu	      2.04013      4.31470      2.10310         0.059734      0.032926      0.161398
Cu	      6.15617      4.32274      6.12936        -0.222119     -0.070355     -0.166655
Cu	      4.12099      8.65313      4.14526        -0.007353      0.093986      0.132516
Ni	      2.00136      8.59757      6.20740         0.069236     -0.002978      0.017397
Ni	      8.19362      4.34308      4.15237        -0.010177      0.077759     -0.092349
O	      1.98734      6.54563      6.21295         0.077524     -0.119611      0.016562
O	      4.05902      8.84767      6.46661         0.112008      0.036390     -0.392752
O	      6.12831      6.27247     10.24831         0.034465      0.011209      0.121822
O	      2.16846      2.02529      2.07838        -0.498557     -0.033056      0.043225
O	      4.03377      4.28580      2.09340        -0.215891      0.003448     -0.031569
O	      4.08556      2.10887      3.97812         0.051889     -0.012916      0.511848
O	      6.18087      4.30303      4.29590        -0.022807     -0.031749     -0.246687
O	      6.16378      1.92596      6.17908        -0.123921      0.010086     -0.002056
O	      8.06456      4.24615      6.24091         0.194555      0.065172      0.247276
O	      1.89941      4.34942      4.02732         0.048366      0.036268     -0.082419
O	      4.09407      6.79785      4.12999        -0.012762     -0.120264     -0.022069
O	      4.25596      4.39336      6.24190        -0.191166      0.038973      0.013738
O	      6.16216      6.72732      6.35819        -0.002427      0.060587     -0.310465
O	      6.17313      4.59057      8.00100         0.133586     -0.121213      0.097411
O	      8.01047      6.73464      8.26590         0.014424     -0.084331     -0.010233
O	      4.26613      6.47961      8.26307         0.045171      0.111300     -0.027020
O	      6.12239      8.54911      8.35413         0.101203     -0.011175      0.019497
O	      8.36435      8.76080     10.24278        -0.007235     -0.047489     -0.018219
