# total energy = -219.25467928 eV
 
CRYSTAL
PRIMVEC
0.062371 6.290768 6.365388 
6.161115 0.037126 6.389518 
4.128846 4.231601 0.003517 
PRIMCOORD
36 1
Li	      2.17766      8.41427      6.40881        -0.045089      0.004624     -0.036112
Li	      4.15315      8.32544      8.52005         0.018995      0.013083      0.015856
Li	      8.28183     10.48641     10.58847         0.014200     -0.058736      0.002651
Li	      8.19544      4.21482      8.45181        -0.055773      0.032164     -0.023800
Li	      8.27504      6.32850      6.47510         0.056694     -0.030993     -0.011059
Li	      6.29657      4.20394      6.41576         0.075835     -0.057517      0.129471
Li	     10.26220      8.42115     10.58180        -0.019809     -0.044190     -0.004245
Li	      4.12495      6.34293      6.47961        -0.039443     -0.001682     -0.040198
Li	      4.16996      4.25247      8.53035         0.057543      0.019391      0.106725
V	      6.24146      8.39074      6.47563         0.036509      0.136323      0.099547
Cr	     10.18808      4.27086      6.40150        -0.055645      0.294946     -0.166970
Cr	      4.16923      4.25071      4.23598        -0.027946     -0.123443     -0.076377
Cr	      8.21685      6.32859     10.57571         0.115921      0.492066     -0.084676
Co	      6.18874      2.19415      4.39647        -0.125643     -0.070659     -0.076346
Co	      6.18479      2.25889      8.49522        -0.069697     -1.026406     -0.131709
Co	      2.14434      2.09009      4.21264        -0.076881      0.003806     -0.063115
Co	      6.13654      6.20773      8.49782        -0.122039     -0.181292     -0.041958
Cu	      2.23158      6.39903      8.51135         0.117139     -0.075099     -0.083416
O	      2.05979      2.08991      2.18649         0.181555      0.116521      0.206595
O	      4.28157      4.37987      2.10882        -0.221879      0.190573      0.004274
O	      4.28993      2.24911      4.24560        -0.175478      0.188974      0.030535
O	      6.14354      4.24708      4.44438         0.139428     -0.256576     -0.103409
O	      6.20603      1.94041      6.41368         0.012348     -0.101678      0.132106
O	      8.40863      4.20715      6.41985         0.069145     -0.049420      0.036177
O	      2.15150      4.23963      4.32058        -0.013230     -0.100085      0.014826
O	      4.08172      6.27308      4.15816        -0.029367      0.071565      0.149530
O	      3.93877      4.27650      6.24969         0.062163      0.006878     -0.091002
O	      6.16940      6.57286      6.33427         0.018594     -0.216661     -0.096833
O	      6.16614      4.09496      8.44994         0.060583      0.882017      0.049176
O	      8.18434      6.31006      8.57778        -0.176026     -0.002117      0.128394
O	      2.00315      6.17862      6.20275         0.006569     -0.158416     -0.081473
O	      4.33390      8.57206      6.33385        -0.080313      0.002701      0.034772
O	      4.17569      6.32287      8.48907         0.299326      0.065215     -0.036243
O	      6.25436      8.50729      8.27185        -0.043715     -0.044243     -0.024183
O	      6.20899      6.35787     10.72375        -0.039322      0.329216      0.036669
O	      8.09514      8.35168     10.61323         0.074749     -0.250852      0.095821
