# total energy = -219.63120831 eV
 
CRYSTAL
PRIMVEC
0.000750 6.226024 6.211614 
6.266547 0.000238 6.212222 
4.172027 4.145380 0.005915 
PRIMCOORD
36 1
Li	      6.24172      6.22401     12.37840        -0.008940     -0.022920      0.032554
Li	      8.33272      8.35030     12.34847        -0.002009      0.010129      0.029221
Li	      6.26847      2.03869      4.32514        -0.011195     -0.010157      0.047176
Li	      8.33415      4.13517      8.25184        -0.022995     -0.034323     -0.091608
Li	      6.24020      6.29629      4.23665         0.006289      0.051103      0.011195
Li	      4.09873      4.18372      4.24100        -0.046423      0.019043      0.019297
Li	      6.29200      4.08478      6.17397         0.024369     -0.021941     -0.014707
Li	      4.22972      8.25692      4.25852         0.041419      0.010054      0.070985
Li	      4.21408      6.25129      6.02811         0.023155      0.012528     -0.017715
V	      6.20452      4.18975      2.09016         0.026427     -0.103363     -0.068498
Cr	      4.13678      2.11525      2.05048         0.096356     -0.066165      0.008283
Cr	      6.27704      2.09638      8.27796         0.213686     -0.166317     -0.069422
Cr	      6.29543      6.18425      8.25871        -0.125062      0.064173     -0.032141
Fe	      8.41839      4.12949      4.28769        -0.007394     -0.052551     -0.190260
Fe	      4.22236      4.16993      8.26721        -0.210358      0.159528     -0.056212
Co	      6.24233      8.28399      6.20503        -0.011964     -0.003971      0.096802
Cu	      2.09671      6.21253      4.22476         0.034374      0.028418      0.053501
Ni	      4.19118      2.07501      6.14303        -0.000361      0.007802     -0.103593
O	      2.07667      1.98115      2.01807        -0.031300      0.143676      0.060696
O	      4.27646      4.15383      2.10236        -0.139783      0.063845      0.021201
O	      4.16669      1.98007      4.07085        -0.028861      0.125090     -0.115858
O	      6.36906      4.08061      3.89720        -0.074963      0.016760      0.036289
O	      6.19296      2.08003      6.32413         0.105982     -0.019543     -0.036550
O	      8.33349      4.16402      6.15435        -0.011631     -0.115753      0.219507
O	      2.08334      4.24761      4.31706        -0.009938     -0.044848     -0.064415
O	      4.12130      6.23611      4.01765        -0.040644      0.015301      0.082682
O	      4.03458      4.13623      6.30498        -0.030445      0.067114     -0.083831
O	      6.31368      6.33625      6.26599        -0.112671      0.041916      0.014041
O	      6.18903      4.16588      8.22593         0.145427     -0.016521      0.009014
O	      8.34155      6.26339      8.28035         0.010591     -0.129006      0.155820
O	      2.12653      6.10303      6.38727        -0.020758     -0.008724     -0.079020
O	      4.29343      8.29528      6.31758         0.034268      0.023795     -0.011724
O	      4.22866      6.25345      8.30365        -0.004650      0.008762      0.052385
O	      6.21196      8.26391      8.19145         0.025705      0.001220      0.001223
O	      6.25139      6.21673     10.24482         0.123673     -0.015440     -0.009601
O	      8.31233      8.30115     10.26829         0.040625     -0.038715      0.023280
