# total energy = -221.64993273 eV
 
CRYSTAL
PRIMVEC
0.013283 6.247288 6.356008 
6.213021 0.018930 6.350325 
4.152562 4.171356 0.002118 
PRIMCOORD
36 1
Li	      0.09893      6.24516      6.40354        -0.059222      0.016115     -0.022774
Li	      1.99108      0.06809      2.03412         0.003298      0.004823     -0.009281
Li	      4.23011      6.16555      2.33163         0.023855     -0.037089      0.078286
Li	      6.05653      6.34267      4.29249         0.029737      0.004537      0.013105
Li	      4.05321      4.39069      4.22518        -0.014664     -0.000246     -0.024719
Li	      6.19410      4.20092      6.37203         0.009752      0.018958     -0.044996
Li	      2.28630      6.13963      4.35582        -0.054798      0.026890      0.046773
Li	      2.12311      4.17838      6.20432         0.028821     -0.038625     -0.020304
Li	      4.12179      6.23798      6.15042         0.008364     -0.014306      0.030415
V	      8.21214      4.17799      4.28508         0.170585     -0.005949      0.104854
Cr	      6.25205      8.32409     10.60222         0.051419     -0.125278      0.095555
Cr	      8.30437      6.25539      6.36483         0.140575     -0.022238     -0.057709
Cr	      6.23302      6.25172      8.42742        -0.013417      0.061630      0.030280
Fe	      4.07696      2.19903      1.99619         0.109053     -0.180446     -0.021179
Fe	      4.21467      4.17330      8.37367        -0.067468     -0.052912      0.100466
Co	      2.05594      8.23111      6.40403        -0.147939      0.089633      0.154152
Co	      2.08667      4.16149      2.19969         0.064779     -0.094534      0.098133
Ni	      4.24508      8.21686      4.29420        -0.129850      0.157818      0.063895
O	      2.12172      2.24333      2.13133        -0.094479     -0.077904     -0.101731
O	      4.00170      4.10353      2.14889         0.004170      0.192821      0.024658
O	      4.23144      1.98489      4.29968        -0.076020      0.045333      0.021868
O	      6.41133      4.10345      4.19634        -0.151048     -0.011633     -0.054886
O	      6.25175      2.09494      6.21671         0.123588     -0.015471     -0.113864
O	      8.30225      4.14359      6.29164        -0.015783     -0.019803     -0.135966
O	      2.05334      4.20009      4.07978         0.171417      0.045118     -0.017340
O	      4.16904      6.27368      4.24748        -0.012888     -0.206350      0.014744
O	      4.16886      4.07511      6.47848        -0.002896      0.022721     -0.067249
O	      6.35007      6.26175      6.46154        -0.070078      0.009287      0.005063
O	      6.25026      4.25517      8.50903         0.083619     -0.011490     -0.073945
O	      8.25008      6.23110      8.37614         0.055390      0.018328     -0.013210
O	      2.04839      6.40419      6.40517         0.067913      0.099974     -0.019111
O	      4.02574      8.31575      6.39668        -0.050360      0.021535      0.159765
O	      4.21436      6.25561      8.59537        -0.029191      0.053857     -0.086157
O	      6.22507      8.28580      8.56161        -0.043564      0.019504      0.002863
O	      6.07225      6.29654     10.50182        -0.029983      0.052421     -0.106583
O	      8.27313      8.41665     10.48762        -0.082686     -0.047025     -0.053873
