# total energy = -220.45125146 eV
 
CRYSTAL
PRIMVEC
-0.036998 6.396306 6.270011 
6.270723 -0.051433 6.283840 
4.158234 4.250868 -0.011461 
PRIMCOORD
36 1
Li	      6.31516      8.38004     10.51007         0.028131     -0.057533     -0.040952
Li	      6.15391      2.22807      8.37281        -0.013270      0.152646      0.035446
Li	      8.15709      4.35800      8.36024        -0.079866      0.117777      0.088857
Li	      6.23823      4.20785      6.50390        -0.074666      0.041006      0.042961
Li	      6.15594      4.23871     10.29384         0.026364      0.080488     -0.002246
Li	      8.30625      6.43311     10.25210        -0.000729      0.009302     -0.030051
Li	      4.20230      6.32192      6.22756         0.048682     -0.078516     -0.042466
Li	      8.45404      8.36166      8.39168         0.043592     -0.040306     -0.033169
Li	      6.35660      6.20632      8.39863        -0.008120     -0.114834      0.039646
V	      2.10645      6.33389      8.32557         0.045343      0.015351      0.219749
Cr	      6.26130      0.00118      6.25663         0.111979     -0.110237     -0.050383
Cr	      8.33425     10.56481     10.47527        -0.002335      0.051822     -0.044640
Cr	      6.24040      8.46229      6.25814         0.092822     -0.137526     -0.295437
Fe	      4.13346      8.48630      8.34098         0.106885     -0.012085      0.064968
Fe	      6.15101      6.40941      4.21190        -0.082800      0.010056     -0.052599
Fe	      4.14403      4.30436      4.22340        -0.002376      0.061906     -0.044002
Cu	      8.27613      2.11582      6.22130        -0.004661      0.081104      0.010865
Ni	      8.35869      6.37737      6.37700        -0.058498      0.057938     -0.033347
O	      6.24399      4.22649      8.38193        -0.022398     -0.011013      0.006940
O	      2.14319      1.95034      2.03861         0.093922     -0.084058      0.040151
O	      4.29412      4.15159      2.09667         0.115670     -0.117258      0.051374
O	      4.09951      2.08857      4.10656         0.047543     -0.017552     -0.086111
O	      6.25184      4.29410      4.04491        -0.054163     -0.022170      0.158356
O	      6.28759      1.96614      6.29573         0.121848      0.029328      0.004242
O	      8.43095      4.32490      6.19556        -0.089712     -0.330980      0.084024
O	      2.15109      4.15617      4.24319        -0.032527     -0.031371     -0.024484
O	      4.21774      6.24803      4.17257        -0.033432     -0.005436      0.002654
O	      4.09742      4.18601      6.18364        -0.053503      0.080648      0.022968
O	      6.25523      6.46009      6.18927        -0.084656      0.071262      0.006957
O	      8.32248      6.35655      8.32845         0.002198     -0.006130      0.102380
O	      2.00849      6.25221      6.39627         0.007978      0.015231     -0.234309
O	      4.16678      8.60113      6.35944        -0.035320      0.004156      0.039876
O	      4.01705      6.43325      8.43775        -0.136011      0.104625     -0.148143
O	      6.16420      8.62203      8.28624        -0.062814      0.124448      0.035126
O	      6.13607      6.36153     10.56560         0.011067      0.072310      0.049288
O	      8.27653      8.62050     10.55543         0.027833     -0.004400      0.055509
