# total energy = -221.51736847 eV
 
CRYSTAL
PRIMVEC
0.042339 6.388428 6.164513 
6.336494 0.056426 6.150529 
4.239021 4.264627 0.022371 
PRIMCOORD
36 1
Li	      6.28710      0.14922      6.06715         0.077335     -0.088211      0.008207
Li	      8.45112      8.59413     12.24336         0.078231     -0.042057      0.036471
Li	      6.46872     10.61097      8.35035         0.065680     -0.056282     -0.244792
Li	      6.45736      2.26570      4.21611         0.047500     -0.120338     -0.049168
Li	      6.35680      6.23442      4.16684        -0.016458      0.182540      0.035333
Li	      6.40077      4.22655      6.07809         0.044891      0.027271      0.127910
Li	     10.45917      8.59075     10.29535         0.071291      0.015530      0.120358
Li	      4.28063      6.35934      6.10663        -0.071705      0.032392      0.055049
Li	      8.42448      8.64853      8.33085        -0.074437      0.022990     -0.077203
V	      2.04755      4.33030      6.06449         0.300221      0.122249      0.672326
Cr	      8.47728      4.30881      8.19217        -0.112018     -0.136137      0.266067
Cr	      4.25231      2.20817      6.10442        -0.076525      0.088342      0.154907
Cr	      8.46530      6.49022     10.28140        -0.229670     -0.048848      0.354758
Fe	      4.21672      2.13731      2.14166         0.177498      0.024557     -0.719921
Fe	      0.12652      2.18585      2.01476        -0.038055     -0.085080      0.005592
Fe	      6.27762      6.37620      8.25778         0.061499      0.188438     -0.163200
Cu	      8.41663      4.18912      4.19878         0.283974      0.063913     -0.102975
Cu	      4.40712      4.31451      4.11871         0.149300      0.028272      0.231956
O	      8.51709      8.40877     10.31085        -0.016965      0.126936     -0.073779
O	      2.14299      2.24697      2.00664        -0.008273      0.014909      0.133099
O	      4.16184      4.24711      2.10410        -0.059411      0.070106     -0.334879
O	      4.27771      2.34277      4.10202         0.070798     -0.142863      0.298440
O	      6.50800      4.30082      4.13448        -0.396088     -0.049288      0.002798
O	      6.25184      2.19177      6.26593        -0.041954      0.062086     -0.136899
O	      8.51090      4.46153      6.21320        -0.047710      0.029930     -0.098668
O	      1.99483      4.32031      4.19109         0.207204      0.082200     -1.010774
O	      4.16048      6.28980      4.01410         0.110416      0.033288      0.069953
O	      4.04910      4.22452      6.14033         0.152788     -0.105158     -0.060149
O	      6.44481      6.59767      6.20361         0.076516     -0.292062     -0.038987
O	      6.45484      4.31593      8.17740         0.032185     -0.063429     -0.020294
O	      8.45748      6.34990      8.22200         0.029106     -0.004820     -0.113390
O	      2.17760      6.17505      6.12812        -0.048277      0.196015     -0.157181
O	      4.45137      8.49029      6.24925        -0.453987     -0.022245      0.105858
O	      4.31972      6.50936      8.26875        -0.191981     -0.129868      0.166932
O	      6.30647      8.48903      8.07042        -0.106932     -0.055797      0.455245
O	      6.41129      6.44569     10.18999        -0.045985      0.030518      0.100998
