# total energy = -237.77496870 eV
 
CRYSTAL
PRIMVEC
0.022795 6.253479 6.295678 
6.290933 0.039326 6.279697 
4.226730 4.191306 -0.006848 
PRIMCOORD
36 1
Li	      8.46003      2.22590      6.27960        -0.006382     -0.060391      0.047889
Li	      4.23670      8.33421      8.35430         0.009552      0.047061      0.064785
Li	      4.28625      6.28360     10.48617         0.009915      0.035706      0.026360
Li	      8.33699      4.24992      8.30280        -0.027089     -0.020574     -0.019428
Li	      8.39470      6.28407      6.30202        -0.015672     -0.000986     -0.010790
Li	      6.28886      4.27766     10.47491        -0.041712      0.015249     -0.003766
Li	      6.30918      8.31613      6.31452        -0.013349      0.043475      0.112454
Li	      4.24732      4.19914      8.34694        -0.050524     -0.048033      0.032140
Li	      6.32699      6.24420      8.36957         0.059346     -0.000345      0.046723
Mn	      4.24466      6.39050      6.36997         0.183201      0.042529      0.006351
V	      2.19586      6.17243      8.33145         0.340898      0.631424      0.517751
V	      8.37014      6.36331     10.41819        -0.340054      0.056148      0.043360
Cr	     10.43156      4.16168      6.28040        -0.084705      0.116958     -0.048815
Cr	      6.26555      2.15743      8.34118         0.192340     -0.007436     -0.211682
Cr	      2.16808      2.14378      4.20186         0.011333     -0.025849     -0.343828
Cr	      4.21833      4.17396      4.19173        -0.049592     -0.131493     -0.065308
Cr	      6.38945      4.20956      6.30557         0.120552     -0.072333     -0.068328
Ni	      6.24769      2.08294      4.21833         0.064117     -0.073259     -0.309779
O	      2.00218      1.92752      2.19717        -0.119913      0.618058      0.126375
O	      4.28224      4.27050      2.07299         0.102545     -0.004565      0.057396
O	      4.15125      2.21258      4.14433        -0.181367      0.107061      0.039695
O	      6.27477      4.25010      4.16407        -0.154227      0.205934      0.210798
O	      6.28746      2.12206      6.30438        -0.050639     -0.048055      0.260713
O	      8.42474      4.20301      6.24353         0.024875      0.057974     -0.027379
O	      2.21974      4.22155      4.20812        -0.004071     -0.019511     -0.013344
O	      4.23039      6.23707      4.09776        -0.015160      0.034289      0.218346
O	      4.36526      4.22892      6.15477        -0.029465      0.337292      0.129199
O	      6.37313      6.22753      6.18466        -0.052802     -0.025973      0.077845
O	      6.31437      4.12738      8.26749        -0.042198      0.067163     -0.001795
O	      8.46714      6.28796      8.52777         0.146035      0.033599      0.028415
O	      2.02222      6.23436      6.35085         0.065412     -0.074174     -0.514387
O	      4.22498      8.43969      6.29567         0.012693     -0.424224     -0.032063
O	      4.08280      6.28761      8.44815        -0.238245     -0.055504     -0.564815
O	      6.31803      8.56220      8.47175        -0.062762     -1.141015     -0.007670
O	      6.40934      6.29208     10.53658         0.045841     -0.248208      0.203801
O	      8.39258      8.14252     10.52329         0.191274      0.032008     -0.007219
