# total energy = -203.53618431 eV
 
CRYSTAL
PRIMVEC
0.085543 6.084285 6.591340 
6.204392 0.065129 6.612293 
4.152745 4.086276 0.027574 
PRIMCOORD
36 1
Li	      4.14645      4.02015      0.23372        -0.021825      0.041816     -0.021920
Li	      6.00651      4.00466      2.26743         0.136368      0.031945      0.103461
Li	      4.16370      2.18326      2.19598        -0.071966     -0.194123      0.011136
Li	      6.17968      2.09458      4.41129        -0.002505      0.078234      0.083978
Li	      4.15438      6.01255      2.30976         0.065864      0.087214     -0.079277
Li	      4.17934      4.08191      4.34227         0.028749     -0.046959      0.003340
Li	      6.15752      4.11209      6.65778         0.086062     -0.049862     -0.029803
Li	      2.19704      4.11526      6.52629        -0.052942     -0.051363      0.014596
Li	      4.23646      4.09934      8.66667        -0.021241      0.081653      0.004064
V	      1.98989      1.96470      0.12205        -0.222243      0.339214     -0.029035
V	      8.21530      4.13618      4.48205        -0.148854      0.147109     -0.054541
V	      6.20891      6.27605      8.75381        -0.158772      0.066773      0.150699
Cu	      2.19285      4.11059      2.26844        -0.102080     -0.197070     -0.116453
Cu	      2.08978      2.09854      4.40135         0.156580     -0.186148     -0.043903
Cu	      4.21889      2.18166      6.61515         0.042377     -0.217168      0.063290
Cu	      0.07340      4.04441      4.38511        -0.107222      0.159730     -0.001343
Cu	      4.16089      6.03652      6.51925         0.180051     -0.057851      0.240114
Ni	      8.34777      6.15462     10.97576         0.022328      0.033889     -0.004039
O	      4.06071      8.01334      6.46188         0.109234      0.065916     -0.003032
O	      6.29134      8.03733      8.86817         0.021002      0.179241      0.011426
O	      2.13010      2.05339      1.87014         0.005255      0.041007      0.080674
O	      4.09084      4.06920      2.22086         0.010350     -0.011300      0.007766
O	      4.10006      2.01958      4.62557         0.092415      0.079589     -0.093631
O	      6.40712      4.19431      4.32032        -0.116320     -0.120411      0.019699
O	      6.43310      2.11258      6.55196         0.080670     -0.035246     -0.042610
O	      8.37322      4.01658      6.39393         0.013879     -0.030798      0.054009
O	      2.02815      4.04335      4.54094         0.178241      0.069635      0.020242
O	      4.24536      6.17006      4.28736        -0.063187     -0.167173     -0.030670
O	      4.20374      4.11917      6.61618        -0.056563      0.246823      0.006265
O	      6.13149      6.08684      6.97116        -0.138875     -0.020752     -0.183138
O	      6.42350      4.27219      8.96406        -0.009991     -0.080846     -0.111906
O	      8.22117      6.19133      8.80565         0.015548     -0.008942      0.040205
O	      2.14730      6.19938      6.48142         0.066889     -0.329850     -0.022259
O	      4.38995      6.12333      9.04962        -0.041083      0.018555     -0.011382
O	      6.23028      6.13877     10.86011         0.066856      0.082252     -0.036000
O	      8.40024      8.22835     11.12579        -0.043049     -0.044732     -0.000021
