# total energy = -203.57601351 eV
 
CRYSTAL
PRIMVEC
0.063379 6.067306 6.208263 
6.253778 0.013876 6.258816 
4.179956 4.088844 -0.001566 
PRIMCOORD
36 1
Li	      6.20985      0.07842      6.19560         0.039942      0.042780     -0.048843
Li	      8.40650      8.15583     12.29947         0.100331     -0.052066     -0.078221
Li	      6.41796      8.08955     10.36191        -0.017798      0.024777     -0.057710
Li	     10.41052      6.16186      8.37877         0.123938     -0.051270      0.008316
Li	      4.11863      4.06045      4.10455         0.022314     -0.023095      0.022991
Li	      6.25268      4.14922     10.27241         0.041148     -0.012015     -0.052317
Li	      8.24134      6.18680     10.29764        -0.003509     -0.027203     -0.008451
Li	      8.45637      8.10039      8.38680        -0.034267      0.028038     -0.020931
Li	      6.37492      6.06691      8.42191        -0.012579     -0.016928     -0.025924
Ti	      4.14590      6.06920      6.11426         0.136165      0.006630     -0.218227
Fe	      6.28351      8.12300      6.24165        -0.084060     -0.206687     -0.047592
Co	      6.19532      4.11863      2.10278        -0.057775     -0.050429      0.130728
Co	      4.29016      6.03937     10.34736         0.128770     -0.039694     -0.025892
Co	      6.28436      6.10587      4.20767        -0.121458      0.062088      0.037769
Co	      6.39072      3.90732      6.31937        -0.110091      0.334738      0.035926
Cu	      4.16403      2.05698      2.14119        -0.040495      0.102791     -0.111254
Cu	      2.16153      4.10436      2.13542        -0.116926     -0.158822     -0.053249
Cu	      4.28046      2.01025      6.28177         0.247419      0.191603     -0.044956
O	      6.53226      4.08083      8.23405        -0.274908      0.045725      0.128045
O	      8.41662      6.00096      8.23415        -0.019558      0.212601      0.231475
O	      2.17371      2.11329      2.31597        -0.159048     -0.505566     -0.078441
O	      4.10123      4.01874      2.10613         0.492732      0.279487      0.019575
O	      4.02985      1.94859      4.20608         0.000089     -0.169279      0.163518
O	      6.42005      4.19031      4.16806        -0.102032     -0.192669     -0.814131
O	      6.37204      2.14125      6.22512        -0.263967     -0.409570     -0.096410
O	      8.35251      4.14995      6.02014         0.224134     -0.253900     -0.115685
O	      2.10488      3.91346      4.34248        -0.037577      0.134002     -0.250730
O	      4.32158      6.07308      4.25757        -0.164929      0.029680      0.264544
O	      4.17175      4.08679      6.32611         0.072621      0.106647      0.030176
O	      6.15422      6.02857      6.14804         0.097721     -0.041619      0.120817
O	      2.22144      6.03160      6.17693        -0.218263      0.378894      0.537779
O	      4.24410      7.99025      6.33158        -0.178969      0.076690     -0.285803
O	      4.14369      6.14299      8.32755        -0.080577     -0.217543      0.004345
O	      6.17445      8.19107      8.20527         0.431168      0.408071      0.542991
O	      6.10892      6.13705     10.35421        -0.037339      0.008079      0.081062
O	      8.41751      8.30949     10.30614        -0.022368     -0.044967      0.074711
