# total energy = -207.03390515 eV
 
CRYSTAL
PRIMVEC
-0.007475 6.230143 6.251166 
6.045834 0.014552 6.229145 
4.022155 4.130465 0.017937 
PRIMCOORD
36 1
Li	      4.03537      4.12556      0.10500         0.017953      0.065978      0.010437
Li	      5.96565      4.19813      2.10941         0.048128     -0.044811     -0.023079
Li	      6.03714      2.10682      4.27437         0.052311     -0.059391      0.135010
Li	      4.05386      6.09533      2.08648        -0.035122      0.071878     -0.116109
Li	      8.04596      4.13289      8.25499        -0.078223      0.047989     -0.004840
Li	      4.08029      2.08277      6.27283        -0.004966     -0.030641      0.004538
Li	      6.06173      4.12074      6.27232         0.039899     -0.067402      0.047199
Li	      6.05296      4.20182     10.39281        -0.025978      0.075761     -0.002011
Li	      4.02865      6.24689      6.20740        -0.058678      0.053807      0.000252
Ti	      8.03668      4.18684      4.26448         0.113628     -0.192108      0.445862
Fe	      4.09009      4.18238      8.21988        -0.135703     -0.116831      0.166281
Co	      1.97108      2.05373      0.07213         0.491871      0.005571     -0.114218
Co	      4.04975      4.10191      4.18329        -0.162540      0.023296      0.218234
Co	      2.02239      6.21339      4.20905        -0.386324      0.227014     -0.435806
Co	      6.00052      8.27183      6.23981         0.115809      0.048498     -0.034971
Co	      6.02113      6.25039      8.27379         0.217242     -0.069627      0.163967
Ni	      4.01236      2.10469      2.06296         0.177458     -0.083119     -0.159514
Ni	      5.98039      6.21773      4.17719         0.006850     -0.020688      0.190510
O	      2.07808      2.07286      2.09450        -0.287620     -0.083424     -0.522890
O	      4.02522      4.04188      2.30191         0.007188     -0.013244      0.042127
O	      4.01546      2.06721      4.17291         0.055889     -0.001210      0.022649
O	      6.05148      4.17242      4.19145        -0.028005      0.000359     -0.054538
O	      6.21482      2.04820      6.29045        -0.017116      0.029544      0.156249
O	      8.11147      4.13545      6.11214        -0.046204      0.065745     -0.210979
O	      2.11449      4.12195      4.28665         0.089696     -0.101667      0.205564
O	      3.98749      6.00122      4.14326        -0.434361     -0.034051     -0.004076
O	      3.91209      4.14124      6.20887         0.022008      0.030332     -0.109626
O	      6.03126      6.37599      6.33012         0.001737     -0.018150     -0.017405
O	      5.99073      4.32332      8.28204         0.067999      0.126723     -0.023033
O	      7.96305      6.31578      8.44161        -0.000042      0.011968      0.279132
O	      1.96510      6.14079      6.09767         0.221123     -0.214888     -0.469114
O	      3.98154      8.28757      6.25317        -0.195282      0.069124      0.103284
O	      4.07501      6.22177      8.37154        -0.023888      0.071828     -0.028098
O	      6.02451      8.21430      8.17004         0.019639      0.011273     -0.053674
O	      5.96937      6.27999     10.22683         0.295514     -0.003017     -0.011641
O	      8.04188      8.38781     10.35936        -0.141889      0.117578      0.204325
