# total energy = -208.62999818 eV
 
CRYSTAL
PRIMVEC
-0.005263 6.142369 6.476153 
6.130865 0.007136 6.468127 
4.094560 4.094097 -0.003602 
PRIMCOORD
36 1
Li	      4.15957     10.12188      6.47528        -0.069802      0.140413      0.033344
Li	      2.20074      8.14910      6.42067        -0.196343      0.132272     -0.009878
Li	      4.06238      8.20810      8.39549         0.063947     -0.026985      0.168671
Li	      2.08731      4.04379      2.22099         0.012439      0.063681     -0.107953
Li	      4.07834      4.14855      4.21258         0.124298     -0.017843     -0.127586
Li	      4.10789      8.18808      4.43359        -0.127461      0.050473     -0.162036
Li	      2.08968      6.14511      4.41755        -0.090149      0.194240     -0.134814
Li	      4.04149      6.24482      6.33517         0.093424     -0.078739      0.001072
Li	      8.14455      8.21064      8.77706         0.005478      0.086843      0.114049
Ti	      8.18249      6.15629      6.58878         0.403697     -0.251979     -0.100740
Fe	      6.09234      4.11977      6.51173         0.133171     -0.260496      0.229938
Co	      2.00981      2.18767      4.18778         0.160075     -1.465386      0.307333
Co	      2.06039      6.13819      8.50350        -0.125418      0.155109      0.769423
Co	      8.17497      4.07744      4.36231        -0.327030      0.036264     -0.183098
Co	      6.12534      8.18286     10.73619        -0.309913     -0.051824     -0.215601
Co	      4.09660      6.14400      2.17194         0.650022     -0.262045      0.042064
Co	      6.05341      6.13005      8.69198        -0.289717     -0.108585      0.160317
Cu	      1.98877      4.15319      6.39804         0.093960     -0.084225     -0.138833
O	      4.17090      8.17106      6.42170         0.234110     -0.004323      0.023865
O	      2.02618      2.02585      2.19563        -0.926457     -0.818224     -0.387566
O	      4.26523      4.19581      2.16957         0.159849      0.579838     -0.266111
O	      4.18892      1.93412      4.48353        -0.214359      0.062444      0.105340
O	      6.21342      4.09048      4.43434         0.058514      0.120191     -0.385363
O	      6.05894      2.08683      6.60225        -0.252557      0.075700     -0.133081
O	      8.11883      4.18149      6.34386         0.028201      0.108511      0.015178
O	      2.10604      3.96692      4.26394        -0.284616      0.504772      0.339949
O	      4.14500      6.16303      4.07396         0.177799      0.174291     -0.292039
O	      4.08459      3.99452      6.40158        -0.219326     -0.008547      0.002067
O	      6.16878      6.12842      6.42117        -0.006356      0.254500      0.130667
O	      6.09468      4.07514      8.49326         0.042470     -0.328228     -0.151462
O	      8.14768      6.10450      8.48363         0.630880     -0.077020     -0.048112
O	      2.12903      6.06947      6.56172        -0.136351     -0.066820      0.444368
O	      3.98199      6.13507      8.90855        -0.036994      0.068458     -0.166565
O	      6.07312      8.18030      8.77374         0.218197      0.880618      0.128541
O	      6.00515      6.24714     10.75271         0.103283      0.254817     -0.018444
O	      7.96709      8.28962     10.84900         0.219035     -0.032166      0.013096
