# total energy = -200.35103707 eV
 
CRYSTAL
PRIMVEC
0.026076 6.157411 6.217807 
6.320772 0.016926 6.226616 
4.210085 4.107004 0.015404 
PRIMCOORD
36 1
Li	      4.17128      4.13578      0.16297        -0.089484      0.075694     -0.033498
Li	      4.10853      2.18956      2.12271         0.004390     -0.062296      0.073566
Li	      6.27447      2.04819      4.18913        -0.115995      0.030926      0.106653
Li	      4.31223      6.04498      2.13209         0.022416      0.090605     -0.017075
Li	      2.24062      4.05808      2.15410         0.007321      0.055214     -0.111088
Li	      2.18621      2.11151      3.99036         0.065281     -0.148945     -0.000148
Li	      4.12404      4.08054      4.01784         0.147859     -0.078351      0.080373
Li	      4.31871      2.01457      6.19948         0.073670     -0.014858     -0.073633
Li	      6.39838      4.15193     10.30622        -0.049448      0.014700     -0.053083
Ti	      4.25983      6.25889      6.06748         0.185040      0.022971     -0.394686
Fe	      4.22739      0.08636      4.16844        -0.305926     -0.139388      0.181304
Fe	      6.34586      4.02558      6.23747         0.031902      0.036294     -0.120154
Co	      8.43761      8.19899      8.30828         0.063624      0.095987     -0.050106
Cu	      6.23149      4.13154      2.15351         0.202647     -0.143518      0.132395
Cu	      8.41484      6.20356     10.35618        -0.021999      0.178942     -0.076247
Cu	      2.13118      4.11188      6.15970         0.064024     -0.112123      0.106604
Cu	      6.31674      6.17773      8.33858        -0.028286     -0.126161     -0.013234
Ni	      2.07377      2.06965      0.06564        -0.092770      0.135505     -0.127610
O	      8.32201      6.29585      8.41872         0.221425     -0.017534      0.163394
O	      6.50022      8.23217      8.17608        -0.062078      0.116012     -0.016305
O	      6.12919      6.18535     10.28425         0.491680      0.009993      0.020961
O	      2.11166      1.95635      2.03422         0.055650      0.031526      0.150765
O	      4.32540      4.09481      2.11187        -0.081526     -0.033768     -0.031082
O	      4.21629      1.89312      4.13717        -0.004417      0.584145     -0.027060
O	      6.47651      4.10675      4.20979        -0.228835     -0.037937      0.045265
O	      6.34662      2.16487      6.24416        -0.034979     -0.496419      0.046047
O	      8.34085      4.08511      6.22847         0.218851      0.155750      0.084525
O	      2.11480      4.25122      4.23303        -0.005092      0.094976     -0.172434
O	      4.35218      6.15538      4.27846        -0.064069      0.074717      0.392173
O	      4.28770      4.14710      6.33713        -0.245997      0.111343      0.044277
O	      6.23865      6.10394      6.34313        -0.116640      0.236681      0.013749
O	      6.15514      4.17879      8.24105        -0.138679     -0.086327      0.181215
O	      2.21170      6.18159      6.16768         0.002230     -0.106632     -0.293110
O	      4.22094      8.12039      6.27254         0.085315     -0.122502     -0.090901
O	      4.16454      6.01525      8.26188        -0.228273      0.033761     -0.055547
O	      8.43314      8.25409     10.27929        -0.028833     -0.458980     -0.066264
