# total energy = -196.96644288 eV
 
CRYSTAL
PRIMVEC
0.015238 6.194758 6.207705 
6.197357 0.003155 6.219904 
4.139904 4.146116 -0.006248 
PRIMCOORD
36 1
Li	      2.08450      2.07855      0.02667         0.034122      0.047496      0.075673
Li	      6.22462     10.31517      8.28975         0.060400     -0.035641      0.016046
Li	      4.21094      8.26583      8.28814         0.014352     -0.037290     -0.021349
Li	      2.06941      4.10429      2.04265         0.016401     -0.027575     -0.030510
Li	      2.10203      2.08364      4.12818         0.003363     -0.003685      0.002367
Li	      6.21055      4.17357      6.17709         0.018174      0.059597     -0.002963
Li	      6.22321      8.26210      6.26651         0.013789     -0.016882      0.019302
Li	      8.22377      8.28500      8.28732        -0.033758      0.084470     -0.066970
Li	      6.16734      6.28557      8.21464        -0.095783      0.073905     -0.073266
Ti	      8.18546      6.20334     10.35603        -0.013182     -0.239268      0.132709
Fe	      0.10636      2.09312      2.02292        -0.183384     -0.102486      0.043100
Fe	      4.22803      6.19490      6.35596        -0.235568     -0.101311      0.042098
Cu	      4.12734      4.10764      0.07935         0.025751     -0.145037      0.177628
Cu	      6.20475      8.32125     10.27673         0.106189     -0.201796     -0.138939
Cu	      4.15452      4.12408      4.13802         0.053710      0.188406     -0.095831
Cu	      8.20799      6.22405      6.21939        -0.269262      0.194415      0.103437
Cu	      4.17960      8.23624      4.13757        -0.063744      0.126144     -0.143600
Ni	      4.12083      6.19472     10.28741        -0.049152     -0.035908     -0.188825
O	      4.14515      8.28403      6.08045        -0.034422      0.090623     -0.036844
O	      4.12628      6.21258      8.21553        -0.020118      0.014506      0.091430
O	      6.19965      8.27928      8.36564        -0.016416     -0.010392      0.102203
O	      6.26310      6.19507     10.24805         0.142198     -0.000328      0.011447
O	      1.88750      2.07490      2.07151         0.330669     -0.000755     -0.008004
O	      4.14009      4.27314      2.19494         0.028332     -0.180654     -0.039829
O	      4.17763      2.06519      4.18186        -0.018190     -0.041225      0.231945
O	      6.19957      4.05549      4.15987        -0.153119      0.077314      0.040407
O	      6.18373      1.95369      6.23925        -0.203887      0.090751     -0.230892
O	      8.35493      4.27790      6.12566        -0.074116     -0.437725      0.064295
O	      2.13397      4.25697      4.11727        -0.088043      0.051826      0.008079
O	      4.06936      6.19702      4.22636        -0.033168      0.074275     -0.035181
O	      4.12520      4.10774      6.09351         0.027265      0.083146      0.127582
O	      6.12771      6.18899      6.23642         0.620528      0.037590     -0.102285
O	      6.23713      3.96169      8.42366        -0.019919      0.327597      0.160676
O	      8.46187      6.23052      8.34820        -0.072809      0.005781     -0.075281
O	      2.09241      6.20359      6.07535        -0.004548      0.020281     -0.162481
O	      8.21882      8.22934     10.34516         0.187346     -0.030163      0.002628
