# total energy = -136.12512536 eV
 
CRYSTAL
PRIMVEC
-0.000115 4.186311 0.000180 
-6.244346 2.093325 0.001275 
2.079837 2.093487 7.886905 
PRIMCOORD
24 1
Li	     -3.13391      5.23269      0.96375         0.003626     -0.002370     -0.001912
Li	     -3.11383      5.23104      4.95280        -0.006699      0.002063      0.003487
Li	     -1.07479      3.13835      0.96771         0.005560     -0.001675      0.002968
Li	     -1.08364      3.13774      4.94398         0.010578      0.001154     -0.015722
Li	     -5.16483      3.13876      0.97257        -0.012059     -0.003269      0.014890
Li	      1.07084      5.23100      4.94759         0.000565      0.003530     -0.002400
Mn	     -5.17260      5.23171      2.95609        -0.077822      0.008169      0.004695
Mn	      1.03824      3.13830      6.90081        -0.000483      0.001646      0.001740
Mn	     -1.07531      5.23066      2.96052         0.078071     -0.005188     -0.007391
Ni	     -1.06707      5.23183      6.89562         0.012030     -0.000661     -0.029451
Ni	     -3.12386      3.13817      2.95823        -0.000934      0.002539      0.001413
Ni	     -3.10088      7.32494      6.90829        -0.013181     -0.001505      0.027531
O	     -3.12395      5.23160      2.95827         0.000123     -0.002912     -0.000784
O	     -3.21323      5.23167      6.91358        -0.083122      0.000630     -0.010870
O	     -0.97972      3.13827      2.94963         0.051667     -0.001083      0.001728
O	     -0.95445      3.13832      6.88956         0.078540      0.001799      0.006979
O	     -5.26822      3.13858      2.96680        -0.055306      0.000379     -0.003495
O	      1.03813      5.23163      6.90107         0.000359     -0.002340     -0.000913
O	     -3.13266      3.13859      1.01955         0.001161     -0.001433      0.001498
O	     -3.11503      3.13819      4.89698        -0.002951      0.002575      0.002126
O	     -1.05420      1.04521      0.97812        -0.004762     -0.000513      0.007404
O	     -1.06502      5.23083      4.83583         0.010939     -0.003293     -0.080363
O	     -5.18345      5.23184      1.08088        -0.004465      0.000880      0.076706
O	      1.05078      3.13803      4.93648         0.008563      0.000878      0.000134
