# total energy = -229.08300826 eV
 
CRYSTAL
PRIMVEC
0.006262 6.317547 6.386462 
6.062416 0.025219 6.367127 
4.059080 4.216072 -0.000131 
PRIMCOORD
36 1
Li	      4.05236      4.20796      0.01690         0.009596      0.011381      0.064361
Li	      4.03885      2.18756      2.17485         0.021797      0.013887      0.093282
Li	      6.02987      2.15699      4.26539        -0.038091      0.038758     -0.008411
Li	      4.07220      6.29666      2.28261        -0.019866     -0.033734     -0.012256
Li	      5.96358      6.25684      4.30342         0.092275     -0.045263      0.065296
Li	      4.11171      4.35714      4.23901         0.024698     -0.065754     -0.010229
Li	      6.04363      4.26065      6.31012        -0.007689      0.009939     -0.017680
Li	      4.07723      8.28797      4.25398         0.005327     -0.004141     -0.000753
Li	      4.08891      6.29850      6.16700        -0.001182     -0.036231      0.029635
Ti	      2.01941      8.36818      6.35218        -0.137882     -0.098834      0.034843
Cr	      6.01285      4.24898      2.18163        -0.060114     -0.002383      0.074645
Cr	      8.10736      4.24311      4.29526        -0.039826      0.116518     -0.030750
Cr	      4.09288      4.19931      8.51543         0.040889     -0.075395     -0.038186
Fe	      2.11184      4.14370      2.25051        -0.104409      0.095027     -0.064947
Fe	      4.13172      2.16120      6.27036         0.021618     -0.028631      0.052295
Fe	      5.97600      8.41349      6.27765         0.093643      0.175592      0.019779
Fe	      6.06736      6.32769      8.52072         0.026187      0.101742     -0.181381
Cu	      2.07849      6.27707      4.28626        -0.122786      0.060557     -0.043530
O	      2.02496      2.12294      1.98124        -0.012729     -0.063503     -0.039571
O	      4.00980      4.19638      2.15243         0.206777      0.053643     -0.010527
O	      4.03863      2.00165      4.37238        -0.040854     -0.003357     -0.202765
O	      6.13507      4.23772      4.14282        -0.045480     -0.028802      0.018770
O	      6.15064      2.14237      6.33142         0.295397     -0.029908     -0.024019
O	      8.10708      4.18649      6.35713         0.018659     -0.072592      0.010819
O	      2.02832      4.24140      4.25423        -0.041990     -0.190902      0.072494
O	      3.97118      6.31981      4.25164         0.096156      0.022402      0.002510
O	      3.99830      4.17146      6.50763        -0.015522      0.111568     -0.020367
O	      6.09633      6.43782      6.47129        -0.050473     -0.050844     -0.088070
O	      6.11031      4.33204      8.46723        -0.003951     -0.104410      0.051868
O	      8.09439      6.34929      8.35034         0.012947      0.033356     -0.135588
O	      2.01220      6.40298      6.53200         0.036609      0.068573      0.140776
O	      4.00760      8.44279      6.37260        -0.194555     -0.000423     -0.044704
O	      4.03479      6.21931      8.64497        -0.058597      0.035836     -0.021594
O	      6.12660      8.49163      8.40975         0.012988      0.011771      0.037595
O	      6.11232      6.40023     10.46670        -0.072337     -0.024606      0.274929
O	      8.11279      8.49920     10.65851         0.052769     -0.000840     -0.048571
