# total energy = -233.40040276 eV
 
CRYSTAL
PRIMVEC
-0.004587 6.247223 6.381494 
6.106892 0.014360 6.362711 
4.087066 4.168179 -0.006258 
PRIMCOORD
36 1
Li	      0.11216      0.06728      0.06475        -0.009372      0.020315     -0.009394
Li	      2.01693      6.27853      8.40025         0.003327     -0.003046      0.026734
Li	      8.15308      4.18883      8.45745        -0.038244      0.014843     -0.024885
Li	      2.00090      2.16596      4.28749         0.041951     -0.065542     -0.066972
Li	      8.08562      6.26418      6.51906         0.017964     -0.009610      0.018263
Li	      6.07717      4.17837      6.41827        -0.006511     -0.026287      0.031528
Li	      2.07606      6.18244      4.26248        -0.057752      0.025956     -0.061191
Li	      2.05591      4.17300      6.32079         0.000937      0.039777      0.034568
Li	      6.17722      6.22540      8.36858        -0.000490     -0.030580      0.072328
Ti	      8.08233      4.21705      4.43702         0.061356     -0.019246      0.390243
Mn	      8.11824      8.29346      8.43309         0.091799     -0.032283      0.016831
V	      0.11580      4.16813      4.25984        -0.074080      0.232619     -0.173993
Cr	      4.06228      8.34145      8.43156         0.048804      0.032312      0.030574
Cr	      6.12462      8.28010     10.68745         0.092756      0.153842     -0.041379
Cr	      4.04088      4.20102      4.21304         0.095641     -0.250928     -0.066910
Cr	      4.11667      6.20183      6.34224         0.021432     -0.273932      0.204729
Ni	      2.01542      2.06039      0.05781         0.063690      0.023915     -0.036127
Ni	      6.12775      2.07153      8.39415        -0.019877     -0.110580      0.122768
O	      2.09208      2.10166      2.05946         0.105148     -0.023227      0.178990
O	      4.08454      4.10598      2.21434         0.010982     -0.112870     -0.056420
O	      4.10515      2.06438      4.11511        -0.044821     -0.087378      0.026145
O	      6.12537      4.07080      4.24527         0.140903      0.011331      0.011017
O	      6.12486      2.07126      6.30261        -0.240937      0.049933     -0.077866
O	      8.08962      4.23278      6.23814         0.025811      0.031549     -0.436427
O	      2.03263      4.18861      4.23648         0.110375     -0.031463     -0.020722
O	      4.11306      6.19170      4.30908        -0.016488      0.228295      0.092156
O	      4.05113      4.27538      6.24476         0.002040      0.083001     -0.023579
O	      5.95478      6.26737      6.36600        -0.013901      0.049453     -0.057264
O	      6.00900      4.12618      8.63435        -0.043622      0.114505     -0.037743
O	      8.19047      6.40617      8.47913        -0.175643      0.017385      0.013868
O	      2.21326      6.29225      6.34968        -0.024625     -0.078150     -0.038667
O	      4.09236      8.26748      6.37265         0.098087     -0.170126     -0.078250
O	      4.06578      6.20917      8.42129         0.013696      0.077080      0.005638
O	      6.14490      8.29511      8.64828        -0.116938      0.056630     -0.017095
O	      5.96202      6.28108     10.66554        -0.166451     -0.194495      0.034155
O	      8.16111      8.46280     10.67226         0.003048      0.257000      0.014348
