# total energy = -244.19246630 eV
 
CRYSTAL
PRIMVEC
0.031866 6.447068 6.164126 
6.398054 0.037960 6.157896 
4.272668 4.301728 0.017766 
PRIMCOORD
36 1
Li	      4.41758     10.58961      6.25768         0.008190     -0.002850      0.059139
Li	      2.26979      6.41089      8.09907         0.011974      0.023873      0.011929
Li	      4.29822      8.56041      8.09067        -0.032256     -0.033140      0.047783
Li	      6.39973      2.23117      8.18755        -0.004854      0.027329      0.007277
Li	      8.48823      6.53309      6.25208        -0.019827     -0.000119     -0.009913
Li	      4.32021      8.62117      4.25785         0.011746      0.026064     -0.078660
Li	      6.22393      8.64134      6.26574        -0.028918     -0.007150      0.009377
Li	      4.27475      6.59623      6.27325        -0.000572     -0.003115     -0.018712
Li	      6.36934      6.45800      8.12065         0.003427     -0.013129     -0.036272
Ti	      6.34089      8.47569     10.22820        -0.057967     -0.150349     -0.114878
Mn	      8.49642      4.44238      8.17428         0.001574      0.006910     -0.027477
Mn	      2.11712      2.16998      4.08662        -0.030195      0.067876      0.022434
V	      4.27579      4.35649      4.06721        -0.014362     -0.017631      0.115343
Cr	      2.23517      8.55961      6.23138        -0.018477      0.021668      0.025512
Cr	      6.40459      4.33153      6.14953        -0.019557      0.017590      0.023875
Cr	      2.18480      6.44682      4.18071         0.041830     -0.097038     -0.024343
Cr	      4.31029      4.31673      8.15957        -0.003583      0.003255     -0.052186
Fe	      4.37286      6.50791     10.19381        -0.068469     -0.060403      0.098833
O	      2.11354      2.23892      2.12023         0.007793     -0.066623      0.086353
O	      4.25981      4.30513      2.28933         0.043002     -0.005817     -0.148665
O	      4.35730      2.24991      4.11005         0.140768     -0.012620     -0.028056
O	      6.30927      4.30933      4.12191         0.038059     -0.037570      0.021323
O	      6.50613      2.30007      6.02488         0.020765     -0.070614     -0.064210
O	      8.44312      4.23736      6.06571         0.021471     -0.041028      0.029698
O	      2.26810      4.35523      4.21101        -0.052183      0.019236      0.032224
O	      4.24611      6.29525      4.15535         0.010880      0.084113     -0.041445
O	      4.39072      4.25511      6.11071         0.038777      0.015932      0.041645
O	      6.44176      6.34185      5.99436         0.006038      0.033018     -0.068313
O	      6.32687      4.33847      8.13636        -0.048191      0.005242     -0.007583
O	      8.56269      6.55893      8.30560         0.014509      0.063162     -0.024435
O	      2.14769      6.57705      6.14356        -0.006693      0.009897     -0.008957
O	      4.18270      8.62557      6.18357        -0.008539      0.003673      0.016750
O	      4.32191      6.32621      8.26888        -0.021902     -0.048076     -0.137045
O	      6.52811      8.62180      8.33847         0.011976      0.001513      0.222330
O	      6.52371      6.59753     10.31413         0.033891      0.280776     -0.008462
O	      8.47852      8.53118     10.27179        -0.030124     -0.043857      0.027786
