# total energy = -239.89376617 eV
 
CRYSTAL
PRIMVEC
-0.021320 6.401397 6.341739 
6.117183 0.007783 6.312178 
4.082180 4.251950 0.001213 
PRIMCOORD
36 1
Li	      6.16795      6.40151     12.47613        -0.014679      0.042779      0.019845
Li	      4.13900      8.49193      8.36944        -0.036860      0.001907     -0.068770
Li	      6.09806      8.42653     10.50518         0.037248      0.025764     -0.025127
Li	      6.11533      6.41053      4.31116        -0.047138      0.026085      0.026046
Li	      6.14235      4.30719      6.27576         0.010987      0.010171      0.030788
Li	      6.13556      4.44343     10.64070         0.009374      0.010167     -0.037455
Li	      1.87919      6.31101      4.31373         0.029933     -0.071282     -0.008661
Li	      5.99552      8.50750      6.43525        -0.019223     -0.037186      0.048311
Li	      6.07193      6.53945      8.49140         0.000510      0.060005     -0.015070
Ti	      4.09750      4.24210      4.25971        -0.088385      0.151796      0.010591
Mn	      8.10987      8.52023     12.58480        -0.002992     -0.058807     -0.062071
Mn	      8.13234      8.45807      8.55106         0.132909     -0.032909     -0.005227
V	      8.06623      4.25410      8.41537         0.009297     -0.037254      0.112528
Cr	      6.07232     10.60568      8.40031        -0.023116     -0.087729      0.022318
Cr	      4.13221      0.07403      4.20150         0.017593     -0.032856      0.004338
Cr	      8.14485      6.40098      6.32526         0.015252      0.051413      0.039169
Cr	      4.11773      6.42024      6.31137         0.045935      0.000410      0.014653
Ni	      4.09572      6.35482      2.14243        -0.049595      0.042251      0.066554
O	      2.04124      2.17822      1.96721         0.092435     -0.024620     -0.139458
O	      4.01861      4.25128      2.19717         0.151141     -0.084331      0.071050
O	      4.08032      2.17721      4.32287        -0.011539      0.044210      0.003995
O	      6.07398      4.30579      4.08841        -0.102047      0.008882     -0.009806
O	      6.12721      2.16477      6.40832         0.048626      0.007818     -0.112023
O	      8.17642      4.38888      6.32322        -0.024869      0.072467      0.030281
O	      2.14304      4.21511      4.02921         0.178458     -0.000461      0.155884
O	      4.06157      6.19726      4.29209        -0.012233     -0.211086      0.108531
O	      4.11134      4.24182      6.21303        -0.010435      0.007848     -0.125583
O	      6.12280      6.40831      6.37340        -0.030037     -0.002909     -0.038591
O	      6.27457      4.19539      8.45284        -0.178469      0.027899     -0.020979
O	      8.17729      6.26291      8.36844        -0.031207     -0.031434     -0.158953
O	      2.09214      6.34849      6.40395         0.019517     -0.012201      0.022282
O	      3.95410      8.37636      6.29341        -0.026469     -0.023638     -0.002360
O	      3.99465      6.40259      8.45489        -0.043539      0.040847     -0.035767
O	      6.08785      8.66219      8.43224        -0.011530      0.042521      0.015577
O	      6.02536      6.43281     10.51861        -0.045987      0.018147     -0.001611
O	      8.12644      8.71010     10.63992         0.011134      0.055318      0.064771
