# total energy = -239.04110480 eV
 
CRYSTAL
PRIMVEC
0.005570 6.288726 6.159621 
6.237850 -0.004761 6.170182 
4.156890 4.197748 -0.001601 
PRIMCOORD
36 1
Li	      6.23601      6.25735     12.14703        -0.028899      0.005682      0.014453
Li	      4.15417      2.07387      2.21284         0.049076     -0.030230      0.021844
Li	      4.29030      6.25094     10.27030        -0.085167     -0.026652      0.058385
Li	      6.26412      8.24526     10.28998         0.052529      0.064303      0.001693
Li	      2.24186      2.16719      4.03604        -0.016780     -0.061067     -0.021047
Li	      4.08819      4.03278      4.08979         0.050519      0.014081     -0.031542
Li	      6.15602      4.33933     10.29854        -0.059053     -0.072556     -0.047677
Li	      8.16694      6.40025     10.26360         0.078123      0.064907     -0.029047
Li	      8.29998      8.41266      8.43093         0.028352     -0.012324      0.080474
Ti	      6.17704      4.16582      2.20584        -0.202071     -0.118977      0.515938
V	      4.14673      6.30766      6.02330        -0.438813      0.403996     -0.193507
Cr	      2.12710      4.17409      2.11776        -0.035185      0.058759      0.029019
Cr	      4.20475      2.09395      6.08758         0.114064     -0.064238      0.008607
Cr	      6.24153      4.19701      6.09256         0.181154     -0.224207      0.077608
Cr	      2.05588      4.21802      6.06791        -0.211293      0.114559      0.054776
Cr	      6.20794      6.32600      8.32165         0.017431     -0.001946      0.245329
Co	      4.13070      6.32880      2.19420        -0.021373      0.018149     -0.288362
Co	      8.33921      8.39634     12.20796         0.041566     -0.036573     -0.204370
O	      2.06524      2.04786      1.98540        -0.212583      0.007546      0.215930
O	      4.22422      4.21816      2.04168         0.180610     -0.072486      0.019639
O	      4.16811      2.07271      4.19846         0.029305      0.011384      0.055988
O	      6.24683      4.20269      4.04894        -0.051456      0.045889     -0.505211
O	      6.18305      2.23565      6.23798        -0.157771     -0.008885      0.580655
O	      8.24548      4.27273      6.24663         0.001104      0.115318      0.072857
O	      2.08787      4.15630      4.09249         0.023729     -0.024258     -0.039790
O	      4.18137      6.24504      4.25752        -0.018447     -0.002123     -0.303300
O	      4.17175      4.19420      6.16038         0.089624      0.031917     -0.045331
O	      6.22380      6.30721      6.21890        -0.042372     -0.065437     -0.054561
O	      6.33352      4.27215      8.12626         0.003992      0.085371     -0.060321
O	      8.26194      6.18807      8.18142         0.207924     -0.007277     -0.030942
O	      2.16333      6.20884      6.23390         0.131928     -0.235310      0.023626
O	      4.21647      8.25612      6.14425         0.445661     -0.127399      0.023285
O	      4.12668      6.27151      8.06455        -0.049331      0.032354     -0.076487
O	      6.22928      8.44496      8.11736        -0.020030      0.108555     -0.059601
O	      6.23270      6.29529     10.20714        -0.012513     -0.003796     -0.134133
O	      8.32354      8.38137     10.31875        -0.063552      0.012971      0.025123
