# total energy = -89.75265871 eV
 
CRYSTAL
PRIMVEC
-0.000344 2.095197 2.094219 
4.152986 0.048548 -0.049254 
0.208749 8.711778 -8.708263 
PRIMCOORD
16 1
Li	      1.96191      2.36750     -0.27071         0.003836      0.027259     -0.028594
Li	      4.15242      2.40440     -2.40040         0.011158      0.011530     -0.011845
Li	      2.21027      4.16473     -2.06851        -0.010475     -0.015560      0.013917
Li	      0.24745      4.15105     -4.14707        -0.002908     -0.024355      0.025247
Mn	      4.07981      0.07070     -0.07062        -0.009172      0.125097     -0.127680
Mn	      2.28271      6.49685     -4.39804         0.009518     -0.124246      0.128782
Ni	      0.18325      6.53173     -6.52750        -0.005974      0.072813     -0.072672
Ni	      2.23528      8.69903     -6.60015         0.004538     -0.074668      0.071580
O	      2.26095      6.52076     -6.51690        -0.012287     -0.018020      0.019873
O	      4.31044      8.75855     -6.66054         0.011317      0.016156     -0.018615
O	      2.29591      4.59909     -4.59421         0.015179      0.047632     -0.051168
O	      0.20247      6.63662     -4.53724         0.005769     -0.111992      0.116601
O	      2.03406      2.22035     -2.21916         0.002993     -0.043095      0.043805
O	      0.17533      4.29935     -2.19977        -0.003847      0.042681     -0.044349
O	      2.21564      8.59406     -8.59054        -0.002873      0.116669     -0.116924
O	      4.06660      1.96884      0.12599        -0.016772     -0.047900      0.052042
