# total energy = -212.22281704 eV
 
CRYSTAL
PRIMVEC
0.068708 6.188328 6.131483 
6.549086 0.052113 6.147535 
4.369884 4.139757 0.030386 
PRIMCOORD
36 1
Li	      8.68171      2.18797      6.14632        -0.042968     -0.000599      0.028187
Li	      6.51894      2.19985      8.04336         0.018561     -0.036164      0.082208
Li	      8.67842      4.13356      8.13901         0.028364     -0.069631      0.038715
Li	      2.36019      2.14814      4.05829         0.057910      0.020379      0.039590
Li	      4.41355      3.99329      4.13547         0.002790      0.063583      0.021923
Li	      8.94935      6.09747      6.23670        -0.046467      0.032809      0.046366
Li	      6.61958      4.05123      6.20582        -0.053030      0.045650     -0.053480
Li	      2.25726      4.16031      6.17864         0.058169     -0.033365     -0.014228
Li	      6.70178      6.16512      8.23012         0.066196      0.004178     -0.041713
Ti	      2.21778      6.00499      4.03902         0.093236     -0.448997     -0.162106
V	      2.04408      0.12760      2.02039        -0.025241      0.050888      0.102069
V	      4.68165      6.18010      6.14571        -0.094214     -0.004329     -0.176754
Co	      6.54169      0.08697      6.13219        -0.013381      0.069277      0.054507
Co	      6.54634      2.12375      4.10281        -0.056687      0.002721      0.084638
Cu	      4.35205      2.16040      2.02617        -0.021192     -0.036474      0.002623
Cu	      8.64111      4.19628      4.25861        -0.092305     -0.044840     -0.078551
Cu	      6.58670      4.19623     10.20330         0.161623     -0.036471      0.029410
Cu	      8.82785      8.29659      8.27641        -0.025987     -0.074811     -0.275146
O	      8.76151      6.14901      8.34619        -0.002802      0.113807      0.216352
O	      2.03714      1.90331      2.11832        -0.041421      0.159628     -0.038985
O	      4.46817      4.08127      1.94929        -0.099853      0.128803     -0.142902
O	      4.56970      1.98063      4.00299         0.076049      0.024412      0.182711
O	      6.45758      4.04900      4.03988        -0.148621     -0.055318     -0.042773
O	      6.53429      1.99589      6.03028        -0.007457     -0.032944     -0.066384
O	      8.99522      4.16547      6.16369         0.129876     -0.036914      0.118253
O	      2.33077      4.18372      4.13131         0.115182      0.415518      0.010573
O	      4.19956      6.29363      4.34268        -0.115015     -0.009635     -0.046058
O	      4.40413      4.42265      6.22191        -0.022299     -0.165732      0.023310
O	      6.39883      6.22959      6.13899         0.247095      0.010090      0.056783
O	      6.43457      4.18286      8.29558        -0.037237     -0.003668     -0.318689
O	      2.06473      6.19718      6.15832        -0.028151      0.010609     -0.127786
O	      4.43887      8.23363      6.09389        -0.086048      0.108260      0.098828
O	      4.24750      6.43364      7.96099         0.033213     -0.012415      0.139054
O	      6.80691      8.46515      8.27545         0.109032     -0.228689      0.050188
O	      6.77998      6.30758     10.32103         0.110258      0.130202      0.093426
O	      8.56591      8.38908     10.25514        -0.247178     -0.059818      0.065842
