# total energy = -206.04487134 eV
 
CRYSTAL
PRIMVEC
0.017392 6.256886 6.110893 
6.297037 0.021813 6.106482 
4.218275 4.188623 -0.005864 
PRIMCOORD
36 1
Li	     10.46143      4.19583      6.08478        -0.086482     -0.029234      0.085920
Li	      8.41634      2.17110      6.08567         0.010233      0.071499      0.037341
Li	      8.43233      4.20141      4.23040        -0.004310     -0.002343      0.093958
Li	      6.27081      6.30866      4.22257        -0.103040      0.073072     -0.081367
Li	      4.14444      4.25102      4.15925        -0.040401      0.013597      0.018417
Li	      8.26209      6.17630      6.07118         0.043575     -0.080787      0.000373
Li	      6.43577      4.34642      6.07554         0.101771     -0.033357      0.004518
Li	      2.16057      4.12968      6.01091        -0.012499     -0.002073     -0.072131
Li	      4.26500      6.22882      6.02146         0.011207      0.008465     -0.046722
Ti	      4.25727      4.22854      7.98774         0.187796     -0.165486     -0.602188
V	      4.18329      8.36757      8.01977        -0.028783      0.032769      0.006263
V	      6.26800      2.18858      4.24094        -0.042240      0.204209      0.137890
Cu	      2.08899      6.28149      8.05164         0.062837     -0.030988      0.131396
Cu	      2.14648      6.24845      4.15533         0.069492     -0.010938      0.040486
Cu	      6.34193      6.27982      8.02926        -0.119425      0.106984      0.188054
Ni	      4.25272      6.22835      2.04409         0.125560     -0.103344     -0.147163
Ni	      4.25314      8.34868      4.16470        -0.037511      0.047439      0.073649
Ni	      8.40454      4.22610      8.10243         0.040370     -0.034823      0.016854
O	      6.31274      6.28698      6.14269        -0.083860      0.076194      0.110193
O	      2.09964      6.27805      6.11368        -0.028933      0.003351     -0.079577
O	      2.22217      2.06900      2.09819        -0.048820     -0.111762      0.047912
O	      4.22365      4.08739      2.03058         0.171899      0.012086      0.049520
O	      4.43690      2.04504      3.92092         0.060745     -0.028877      0.033222
O	      6.32745      3.96943      3.99874        -0.004728     -0.065684      0.110121
O	      6.28942      2.09943      5.97661         0.010348     -0.032265     -0.050221
O	      8.41878      4.19036      6.18317         0.022421     -0.039856     -0.326615
O	      2.04907      4.27974      3.99362         0.079905     -0.126343      0.209471
O	      4.14168      6.31935      4.04520         0.103048     -0.064928      0.127019
O	      4.21154      4.15546      6.20994         0.006654      0.042657      0.523464
O	      6.20337      4.14913      8.21916        -0.228003      0.143430     -0.126556
O	      8.48894      6.38935      8.19419         0.011879      0.218190     -0.097696
O	      4.24552      8.34875      6.25183        -0.001315     -0.019605      0.020104
O	      4.17211      6.25961      8.15896        -0.124156     -0.137193     -0.102939
O	      6.33327      8.38875      8.18784         0.103960     -0.066184     -0.106006
O	      6.40298      6.38736     10.06770        -0.157822      0.048842     -0.169235
O	      8.27435      8.32782     10.13685        -0.071372      0.083285     -0.057733
