# total energy = -208.66582891 eV
 
CRYSTAL
PRIMVEC
0.057404 6.162737 6.273021 
6.229310 0.014531 6.316257 
4.171936 4.156171 -0.009289 
PRIMCOORD
36 1
Li	      2.17069      8.22738      6.24959         0.020860     -0.006862      0.069936
Li	      4.21271      6.21908      2.14554        -0.054364     -0.001990      0.003256
Li	      2.11401      4.10548      2.12508         0.075602     -0.010263     -0.030639
Li	      4.07821      4.21174      4.16467         0.003874      0.062243     -0.035692
Li	      6.29735      4.10414      6.28465         0.013749     -0.027576      0.000101
Li	      2.22918      6.12399      4.23681         0.035888     -0.045047      0.018819
Li	      2.08597      4.20038      6.18759        -0.016195      0.077039     -0.001618
Li	      4.08278      6.11448      6.20259        -0.080094     -0.068083      0.013971
Li	      8.34814      8.26727      8.43275         0.038911     -0.037078     -0.083841
Ti	      4.23970      2.20371      6.32298         0.176090      0.471740      0.298195
Ti	      6.27951      6.07504      8.31769         0.133584     -0.309503     -0.322903
Fe	      6.16344      6.27909      4.15397        -0.052823     -0.297170      0.007845
Co	      8.33988      4.15904      4.22735         0.000138      0.075304      0.021647
Cu	      2.12096      6.17056      8.35820        -0.014015      0.034669     -0.279572
Cu	      4.16459      2.11566      2.07730        -0.123958      0.149568     -0.381008
Cu	      6.35919      8.25687     10.48810         0.131995      0.084399      0.134288
Cu	      4.19141      8.24586      4.18952         0.050027      0.026452      0.041965
Ni	      4.24713     10.30575      6.27788         0.099960      0.148820      0.124421
O	      1.99200      6.16849      6.39127         0.571717      0.073292     -0.108077
O	      4.22353      8.42434      6.15207        -0.078296     -0.705488      0.238196
O	      8.44695      8.41310     10.46111         0.040161     -0.022817      0.072281
O	      2.15001      2.00247      2.15629         0.291389      0.243814      0.097754
O	      4.25931      4.07470      2.08204        -0.343073     -0.201845      0.251703
O	      4.04261      1.95102      4.37700         0.022401     -0.061475     -0.153862
O	      6.41921      4.18304      4.15169         0.023953     -0.126556      0.136171
O	      6.18295      1.96543      6.23149        -0.120196      0.465937     -0.014756
O	      8.47978      4.19989      6.16004        -0.656164      0.144704     -0.164107
O	      2.05275      4.04958      4.15681        -0.217215      0.169627      0.082503
O	      4.22363      6.24755      4.20603         0.004280     -0.294414     -0.047936
O	      4.22085      4.02613      6.25951         0.003352     -0.594800      0.013845
O	      6.32327      6.18966      6.39633         0.051133      0.013278      0.118452
O	      6.25039      4.22851      8.41083        -0.059356      0.278325     -0.042101
O	      8.22264      6.19425      8.27803        -0.128627      0.055213     -0.152911
O	      4.24175      6.26239      8.50428         0.261402      0.085566      0.075047
O	      6.24388      8.21896      8.53219        -0.169757     -0.232213      0.032420
O	      6.18274      6.17028     10.40089         0.063664      0.383194     -0.033791
