# total energy = -209.15421142 eV
 
CRYSTAL
PRIMVEC
0.002455 6.055824 6.534127 
6.145365 0.008671 6.529805 
4.093378 4.029556 0.010325 
PRIMCOORD
36 1
Li	     10.19249      4.10996      6.65251        -0.251576      0.143209      0.000299
Li	      6.02858      3.99150      2.22951         0.099693     -0.085839      0.114946
Li	      4.13555      8.09003      8.67609         0.007671     -0.038732      0.195534
Li	      8.20855      4.11929      8.73542         0.042508      0.033560     -0.093554
Li	      4.07074      4.04169      4.19184         0.049491     -0.180596     -0.038903
Li	      4.20711      1.97239      6.57688         0.121945     -0.221987     -0.106810
Li	      6.12951      4.05293      6.66628         0.158956     -0.047632     -0.029976
Li	      6.13325      4.06434     10.75911        -0.110733      0.096983     -0.022619
Li	      4.14104      4.01517      8.63932        -0.010079      0.105886      0.186165
Ti	      2.01503      2.02055      4.18534         0.616824     -0.185114     -0.351919
Ti	      6.18484      8.01447      6.57249         0.133246      0.161056      0.343221
Fe	      2.06435      2.09749      0.09922        -0.286926      0.628619     -0.366484
Co	      4.15017      6.07724     10.91627         0.014224     -0.443706      0.239526
Co	      8.16976      6.04933     10.82613        -0.065952      0.006291      0.123926
Cu	      6.10265      2.09147      4.42298        -0.028853     -0.006023      0.071719
Cu	      4.08495      6.01022      6.51993         0.041701     -0.032122      0.058537
Cu	      6.15512      5.98842      8.77546        -0.311798     -0.094930      0.263432
Ni	     10.22185      6.05087      8.70033        -0.195580     -0.091709     -0.294053
O	      4.27555      5.97183      9.05830         0.020227      0.115247     -0.740902
O	      2.10089      2.04981      2.23048        -0.157415     -0.089638      0.053843
O	      4.06107      4.15938      2.16032         0.134937     -0.521046      0.052635
O	      4.08948      1.90878      4.34491        -0.218771      0.643777     -0.000488
O	      6.25674      4.06278      4.27172        -0.050737      0.100319      0.030777
O	      6.23272      2.04729      6.82296        -0.108560      0.239017     -0.681559
O	      8.18622      4.02239      6.30975        -0.075384     -0.115088      0.506118
O	      2.04697      3.96476      4.44596        -0.043232     -0.167575      0.123399
O	      4.17230      6.03359      4.10445         0.149348      0.208841      0.729862
O	      3.98897      4.05146      6.49967        -0.188743      0.402732     -0.018773
O	      6.06235      6.08191      6.24536        -0.395474      0.057448      0.180174
O	      6.16835      4.10706      8.70924        -0.048162      0.009958      0.079001
O	      8.05915      6.07230      8.87238         0.410320      0.040991      0.127980
O	      2.09652      6.00177      6.43145         0.379737     -0.144842     -0.199980
O	      4.08710      7.96771      6.57883         0.216651     -0.425475     -0.153929
O	      6.12563      7.90760      8.48400         0.014560      0.230291     -0.676181
O	      6.06759      6.21247     11.06668         0.171680      0.130086      0.138021
O	      8.11001      8.15944     11.07536        -0.235745     -0.462259      0.157016
