# total energy = -136.32077871 eV
 
CRYSTAL
PRIMVEC
2.092781 2.050137 3.946504 
-4.219191 0.050705 3.937995 
2.183992 -6.226308 3.937412 
PRIMCOORD
24 1
Li	     -1.09655     -0.99318      4.93134         0.010341     -0.019052     -0.014560
Li	      1.15452     -3.13903      4.91702        -0.015247      0.018945      0.014564
Li	      1.13666     -3.11424      8.86385         0.000568      0.008460      0.012443
Li	     -0.98942     -5.15418      8.86174        -0.000568      0.002321      0.000174
Li	      1.01051      1.03315      4.93070         0.001962     -0.009420     -0.010047
Li	     -1.03950     -1.01547      8.86636         0.003951      0.000512      0.000354
Mn	      3.24493     -3.09759      6.88103        -0.018930     -0.027799     -0.013948
Mn	      1.11972     -5.17894      6.89275         0.000786      0.000070      0.000866
Mn	     -1.09650      1.01620      6.91385         0.018885      0.026612      0.012932
Ni	      1.04655     -1.10092      2.94504        -0.039745      0.036325     -0.013343
Ni	      1.07416     -1.04057      6.89778         0.000020     -0.000762     -0.001500
Ni	     -0.99073     -3.03061      6.90270         0.038186     -0.035796      0.015234
O	     -1.07956     -0.92108      6.90280         0.001528      0.123567     -0.001711
O	      1.23338     -3.19550      6.91027         0.077564     -0.062111     -0.010338
O	     -1.08905     -5.22141      6.89486        -0.031120     -0.071746      0.008127
O	      1.14468      1.08976      2.95329         0.030712      0.071828     -0.009892
O	     -1.17773     -0.93601      2.93801        -0.077315      0.062032      0.011092
O	      1.13534     -3.21022      2.94547        -0.000872     -0.124554      0.000622
O	     -1.08940      1.04910      4.91146         0.016151     -0.003395      0.047982
O	      0.96566     -1.12444      4.91126         0.021394      0.030459      0.048516
O	     -0.90906     -3.00697      4.93705        -0.023344     -0.030173     -0.046973
O	     -0.94723     -3.04435      8.92596        -0.021739     -0.005508      0.143556
O	      1.14517     -5.18087      4.93669        -0.015858      0.003476     -0.048329
O	     -3.21665     -1.03647      4.86017         0.022689      0.005710     -0.145823
