# total energy = -230.29447331 eV
 
CRYSTAL
PRIMVEC
0.021231 6.280669 6.473555 
6.060613 0.025880 6.469960 
4.053585 4.197396 0.004188 
PRIMCOORD
36 1
Li	      3.96641      4.15757      0.19044         0.077061     -0.102387      0.022704
Li	      8.11453      2.18060      6.45639         0.128521     -0.140336      0.194233
Li	      4.05751      2.24364      2.14389        -0.207038      0.010945     -0.088713
Li	      8.10731      4.24176      4.39723         0.014402     -0.086082      0.067630
Li	      8.22043      4.25306      8.50667         0.069065     -0.186573      0.066140
Li	      4.02618      4.21888      4.19487        -0.076808      0.147824     -0.181538
Li	      8.10574      6.21629      6.48433        -0.006706     -0.017810      0.138108
Li	      2.05434      6.25210      4.32937         0.064838     -0.081624      0.138565
Li	      4.04604      4.21437      8.60905        -0.090431      0.048114     -0.046706
Ti	      6.14079      2.17523      4.42221         0.688615      0.050146     -0.160533
Ti	      6.10687      6.33237      8.71212        -0.423760      0.392143      0.034502
Mn	      3.99807      6.27541      6.48386        -0.345568      0.158983     -0.034590
V	      2.15866      2.12749      4.19839        -0.291500      0.046629     -0.604631
Cr	     10.07698      8.42715     10.75755         0.286051     -0.412379      0.488022
Fe	      6.16177      4.17227      6.56207        -0.343071      0.087496     -0.073259
Co	      2.07774      4.16158      6.45515        -0.037963      0.311026     -0.171063
Ni	      2.04327      6.26013      8.59536         0.075824      0.229713     -0.087049
Ni	     10.02971      6.24876      8.61650         0.159061     -0.219193     -0.117628
O	      2.03438      2.03912      2.31849        -0.215279      0.181756      0.512924
O	      4.09851      4.22939      2.13781        -0.228928      0.178679      0.109784
O	      3.99398      2.13052      4.35735        -0.113363     -0.113956      0.221987
O	      6.07778      4.17572      4.36075         0.016734     -0.395167      0.073495
O	      6.03696      2.15944      6.34359        -0.118887     -0.009554     -0.346499
O	      7.99825      4.18610      6.50683         0.203057      0.095511     -0.129723
O	      1.97772      4.06959      4.29282        -0.056962      0.053389      0.211704
O	      4.14742      6.38240      4.22239         0.229545      0.216532      0.074466
O	      4.08401      4.32681      6.48646         0.204603     -0.165778     -0.000736
O	      6.00327      6.25982      6.44015         0.119476     -0.399614      0.041005
O	      6.04850      4.30139      8.67148        -0.034427     -0.095981      0.022915
O	      7.95616      6.34614      8.56060         0.249555     -0.011628      0.071425
O	      2.10090      6.20768      6.53127         0.120544      0.473298     -0.199884
O	      4.08965      8.26979      6.29838        -0.101081     -0.050713     -0.202453
O	      4.15140      6.33137      8.61902         0.442072     -0.044575      0.121921
O	      6.07050      8.34298      8.82594        -0.008022     -0.344607      0.039121
O	      6.08633      6.32280     10.66957        -0.068947      0.158612     -0.102593
O	      8.03459      8.39456     10.82523        -0.380283      0.037160     -0.103051
