# total energy = -234.75347632 eV
 
CRYSTAL
PRIMVEC
0.003473 6.336483 6.273838 
6.387130 0.035430 6.242216 
4.287524 4.232604 -0.005844 
PRIMCOORD
36 1
Li	      2.13734      2.11500      0.23615         0.019939     -0.023866     -0.126321
Li	      2.12467      0.24473      2.14415        -0.064509     -0.126681      0.001894
Li	      4.00262      2.12626      2.12219         0.085146      0.027065      0.044494
Li	      0.24265      2.04361      2.07549        -0.015004     -0.033413     -0.024318
Li	      2.21534      3.99802      2.09981         0.010094      0.080102      0.057973
Li	      2.18244      2.04224      3.96176         0.078482      0.003931      0.128593
Li	      4.36906      4.24204      4.00085         0.031737     -0.037440     -0.050444
Li	      6.42052      4.24137      6.21706        -0.025791      0.025025      0.040024
Li	      4.23655      6.37325      6.35183        -0.020084      0.007061      0.040737
Ti	      4.30229      8.28138      4.10170         0.083466     -0.187838     -0.215526
Ti	      6.41627      8.44575      6.35159         0.067372     -0.303988      0.190963
Mn	      6.36460      2.20783      4.12522         0.048683     -0.068174     -0.095400
V	      4.25798      2.10430      6.21842        -0.206416      0.056421      0.072990
Cr	      8.53655      6.36205     10.38277        -0.065039     -0.031461     -0.001283
Fe	      4.30268      4.24311      0.20809        -0.007802      0.050321     -0.269145
Co	      8.47381      4.26505      4.09722        -0.045068      0.177266      0.014816
Co	      4.29707      4.31085      8.31876         0.026730      0.030327     -0.113892
Co	      6.35564      6.35999      8.30133         0.120144      0.094400     -0.050044
O	      2.12497      2.12000      2.08065         0.026214     -0.040356     -0.008119
O	      4.27770      4.23347      2.01390        -0.010874      0.024598      0.295991
O	      4.27671      2.14967      4.28936        -0.030291     -0.049776     -0.048623
O	      6.45176      4.07271      4.19020         0.066348      0.030455     -0.014188
O	      6.23841      2.11330      6.19764         0.066723      0.075048     -0.066034
O	      8.59329      4.46236      6.21910        -0.013296     -0.044061      0.058324
O	      1.97694      4.32672      4.24607        -0.103431      0.020858      0.042346
O	      4.17885      6.44446      4.19234        -0.048377      0.200241     -0.048798
O	      4.12978      4.09183      6.22949        -0.101737      0.019445     -0.010822
O	      6.51052      6.47550      6.19760        -0.052966      0.081359     -0.119922
O	      6.39628      4.29923      8.47902        -0.093469      0.213564      0.166071
O	      8.44668      6.46263      8.32210        -0.597344     -0.043461      0.016144
O	      2.10407      6.20158      6.15280         0.048796     -0.022363      0.045542
O	      4.42045      8.52366      6.15245         0.015332     -0.015811     -0.074532
O	      4.34216      6.32018      8.36180         0.596677     -0.082102     -0.023868
O	      6.42575      8.48821      8.26155         0.011769     -0.139850      0.023782
O	      6.47685      6.47655     10.49298         0.019219      0.040734      0.099910
O	      8.66861      8.41576     10.48732         0.078623     -0.007580      0.020683
