# total energy = -227.50413932 eV
 
CRYSTAL
PRIMVEC
-0.051675 6.407584 6.291400 
6.329550 -0.000182 6.240027 
4.220053 4.237702 -0.000422 
PRIMCOORD
36 1
Li	      4.22321     10.54300      6.33407         0.057498     -0.040475      0.006483
Li	      2.15196      8.48397      6.31228         0.024120     -0.036323      0.030827
Li	      2.18964      6.24323      8.26795        -0.004680      0.031091     -0.042490
Li	      4.35540      8.36032      8.28042        -0.006170     -0.073635     -0.022986
Li	      4.21141      6.41054     10.26002        -0.002984      0.015869      0.067578
Li	      6.25290      8.49613     10.24824        -0.011705     -0.013559      0.054071
Li	      6.18785      8.55271      6.47151        -0.066607      0.048808     -0.080278
Li	      4.14048      6.50147      6.49286        -0.032559      0.067118     -0.065267
Li	      6.09351      6.60076      8.35496        -0.084114      0.065546      0.011598
Ti	      6.27527      4.22032      6.22959         0.020521     -0.087604     -0.111302
Ti	      8.27202      6.47976     10.57691        -0.433458      0.073028      0.648425
Mn	     10.46486      8.55655     10.51582         0.088500      0.084666      0.067357
V	      2.19631      2.10758      4.19952         0.058273     -0.033782     -0.030640
Cr	      0.01015      2.11357      2.08729         0.191728     -0.067067     -0.053119
Fe	      2.17469      4.24438      2.04181        -0.003463     -0.128678      0.067046
Ni	      4.20451      4.26570      4.16877        -0.011668     -0.035533      0.014671
Ni	      8.40647      6.37277      6.30390        -0.009399     -0.037227     -0.044154
Ni	      4.01017      4.43327      8.33851         0.124864     -0.093343     -0.058813
O	      2.02622      2.22483      2.20192        -0.038962     -0.014349     -0.009881
O	      4.13438      4.35197      2.10952         0.089544      0.070603     -0.077328
O	      4.00824      2.18474      4.19481        -0.056877     -0.011240     -0.063946
O	      6.28743      4.37049      4.28389         0.070604      0.005316      0.190793
O	      6.28478      2.27110      6.31144         0.064110      0.144669      0.021552
O	      8.27369      4.29550      6.33118        -0.132538     -0.043502     -0.081439
O	      2.08698      4.22946      4.13206        -0.063291      0.021979      0.021986
O	      4.31330      6.34919      4.10440        -0.048391      0.078712      0.034261
O	      4.32883      4.18605      6.24667         0.148082      0.066545      0.059726
O	      6.31243      6.24299      6.15739        -0.118893     -0.055116      0.063789
O	      6.35433      4.17433      8.37611        -0.011869     -0.024583     -0.017967
O	      8.53982      6.29241      8.41050         0.017602      0.012323      0.143545
O	      2.09620      6.38582      6.13314        -0.007756      0.008221     -0.647658
O	      4.15629      8.53073      6.10381        -0.009764     -0.011752     -0.052820
O	      4.17827      6.37655      8.38356         0.009430      0.192065     -0.013866
O	      6.28985      8.52057      8.35927        -0.192442     -0.028033     -0.009484
O	      6.42180      6.38214     10.45403         0.419498      0.012108     -0.038950
O	      8.45448      8.36105     10.41437        -0.036783     -0.162869      0.018684
