# total energy = -235.66120854 eV
 
CRYSTAL
PRIMVEC
0.007491 6.280795 6.297037 
6.404219 -0.010849 6.315619 
4.241622 4.171681 0.021013 
PRIMCOORD
36 1
Li	      8.42993      4.18994      4.24697        -0.026270     -0.021823     -0.092806
Li	      6.35727      2.17214      4.20285         0.081018     -0.003222     -0.026924
Li	      2.11266      4.18550      2.24716         0.063907     -0.028071      0.016766
Li	      6.36617      6.29558      4.31883        -0.097550     -0.053295      0.049042
Li	      4.17435      4.18570      4.32037         0.001584      0.093495      0.023144
Li	      6.34576      4.20954      6.07682        -0.069499      0.055341     -0.044356
Li	      2.11600      6.10098      4.33155         0.027716      0.008960      0.017813
Li	      2.22018      4.13719      6.21160         0.063617     -0.012287     -0.025070
Li	      4.22110      6.20174      6.26204        -0.017575     -0.089542      0.005606
Ti	      8.52683      8.42830     12.49906        -0.138285     -0.015416     -0.409374
Ti	      4.23276      6.25880      2.23294        -0.081431     -0.284213      0.382559
Mn	      8.48885      8.36534      8.42404        -0.049736      0.121899     -0.017407
V	      4.25230      2.09644      6.16235        -0.070505      0.111474      0.175908
Cr	      0.10505      4.18780      4.23492         0.071216     -0.100853     -0.024296
Fe	      6.38662      4.15423      2.22929         0.047226     -0.017429     -0.151015
Fe	      4.20285      2.14604      2.17692         0.237795     -0.125838      0.146455
Fe	      6.33782      6.30085      8.43253        -0.140468      0.095876      0.073413
Ni	      6.43219      6.31013     12.53490         0.044207     -0.004477     -0.008605
O	      1.99255      2.08090      2.01209        -0.009089      0.112192     -0.158505
O	      4.30837      4.24965      2.08840        -0.088453      0.555170      0.060744
O	      4.28756      2.04935      4.36844        -0.008753      0.056153     -0.272473
O	      6.40198      4.19321      4.07845         0.014745     -0.012078      0.229380
O	      6.42850      2.09955      6.36600         0.101943      0.114425      0.028263
O	      8.57499      4.12836      6.29832        -0.090746     -0.137808     -0.003640
O	      2.03122      4.14050      4.26094        -0.040711     -0.032230     -0.010123
O	      4.22576      6.30126      4.10651        -0.010047      0.067681     -0.365825
O	      4.29195      4.00770      6.30050        -0.003824     -0.026409     -0.029214
O	      6.58100      6.18797      6.48961         0.076970      0.029934     -0.159081
O	      6.41798      4.10385      8.53582         0.040530     -0.068451     -0.024963
O	      8.67220      6.18754      8.27367         0.100019      0.006079     -0.079801
O	      2.09914      6.45872      6.39780         0.102364      0.144398     -0.018060
O	      4.11022      8.42856      6.28530        -0.117317     -0.168680      0.233090
O	      4.30836      6.35586      8.35764        -0.050914     -0.421634     -0.076722
O	      6.35927      8.33601      8.41694        -0.022870      0.074918      0.023460
O	      6.46961      6.17895     10.39538         0.035009     -0.016042      0.109565
O	      8.59973      8.35101     10.62693         0.024176     -0.008198      0.423052
