# total energy = -233.48491444 eV
 
CRYSTAL
PRIMVEC
-0.004694 6.191752 6.334410 
6.333566 -0.031803 6.360933 
4.225377 4.148804 -0.023998 
PRIMCOORD
36 1
Li	      2.08569      0.03266      2.06691        -0.017731     -0.024653      0.015543
Li	      4.18641      6.20106      2.15569        -0.029879     -0.047773      0.048718
Li	      2.09523      4.15273      2.15387        -0.011161      0.011551      0.046074
Li	      4.16323      4.20803      4.26174        -0.045750     -0.032425      0.050931
Li	      6.27639      4.13622      6.36507        -0.033298     -0.025586     -0.038284
Li	      0.05436      4.10291      4.17167         0.024591      0.023718     -0.038654
Li	      2.16391      6.10545      4.27052        -0.046899     -0.037379     -0.008609
Li	      2.17403      4.21856      6.25309        -0.020616      0.034733      0.010454
Li	      4.11912      6.11080      6.30429        -0.033852     -0.024458     -0.009039
Ti	      4.20573      2.21034      2.09043        -0.048080      0.492688     -0.092623
Ti	      6.16220      6.29860      4.26301        -0.475432      0.229967      0.054602
V	      6.32356      2.12355      4.20678         0.024436     -0.074365      0.044515
Cr	      4.23777      2.03392      6.34879         0.024669     -0.056390     -0.007781
Fe	      8.43392      8.18992     12.62353        -0.029373      0.043892      0.139064
Fe	      8.45580     10.27551     10.54354         0.037120      0.148435      0.002170
Fe	      4.29195      4.12996      8.38609        -0.073004     -0.047954      0.044274
Fe	      6.35705      6.11351      8.40681         0.015187      0.050573     -0.082641
Cu	      0.03850      6.18488      6.33865         0.111282     -0.046661      0.058409
O	      2.25395      2.02446      2.23485         0.106735      0.105074     -0.057165
O	      4.25200      4.00702      2.23772        -0.053471     -0.378259      0.028080
O	      4.23616      2.07866      4.24692         0.109853      0.144906     -0.013855
O	      6.42680      4.12543      4.23202        -0.182707      0.037542     -0.031168
O	      6.33349      2.02005      6.26844         0.014483      0.263149      0.022187
O	      8.58188      4.09796      6.36650        -0.176986     -0.056182      0.074033
O	      2.07275      3.98995      4.24867         0.008856     -0.353226      0.029179
O	      4.34877      6.17714      4.23481         0.434178      0.084577      0.047063
O	      4.19864      4.02587      6.43967         0.036518     -0.015901     -0.084973
O	      6.45988      6.15007      6.24308         0.007864      0.063755      0.028225
O	      6.24976      4.16208      8.46423         0.037760     -0.140195     -0.026639
O	      8.37855      6.23225      8.32315         0.067996     -0.025174      0.012606
O	      2.00675      6.29742      6.33572         0.179071     -0.008322      0.005728
O	      4.10437      8.29915      6.48900        -0.031248     -0.280937      0.053245
O	      4.31406      6.17784      8.37707        -0.043375      0.083347     -0.047680
O	      6.26850      8.22357      8.47878        -0.023230      0.021459     -0.088333
O	      6.28628      6.28117     10.39913         0.198400      0.069615     -0.077986
O	      8.37385      8.19923     10.56811        -0.062909     -0.233141     -0.109669
