# total energy = -236.70156467 eV
 
CRYSTAL
PRIMVEC
0.035100 6.262424 6.368984 
6.234264 0.033410 6.370717 
4.162885 4.182629 0.015780 
PRIMCOORD
36 1
Li	      6.21180      0.09530      6.32129        -0.026109      0.005988     -0.066272
Li	      4.22547      8.31286      8.49645        -0.021697     -0.093077      0.036985
Li	      4.19323      0.06903      4.27217        -0.020419      0.016803     -0.003031
Li	      6.20323      2.02276      4.33871        -0.026103     -0.064892      0.035471
Li	      4.18263      2.12600      6.37366         0.021263     -0.001229      0.084051
Li	      6.25919      4.13991      6.38073         0.033047      0.031051     -0.035828
Li	      8.30686      6.33138     10.61529         0.033187      0.016362     -0.127279
Li	      6.29871      8.34608      6.41602        -0.006971     -0.041365      0.020082
Li	      6.26824      6.32591      8.48429         0.056764      0.042114     -0.056687
Ti	      6.23574     10.38210      8.48241         0.292377     -0.025274     -0.031148
Ti	      6.36579      6.25360      4.41148         0.259514     -0.055083      0.167124
Ti	      6.17959      4.38061     10.66426        -0.150860      0.292844      0.216871
Cr	      8.33275      4.21529      8.45060         0.024687      0.124646      0.005669
Cr	      4.18108      4.16048      8.42398        -0.022967     -0.182743      0.058259
Co	      6.22534      2.10311      8.43032         0.293743     -0.024193     -0.154904
Co	      4.16566      4.18598      4.36295        -0.033153     -0.032945      0.149076
Co	      8.26964      2.16123      6.32781        -0.069337      0.101994     -0.007007
Ni	      4.18290      6.26099      6.37498         0.038989      0.032484     -0.035708
O	      2.07697      2.11442      2.22773         0.381530     -0.059351      0.095928
O	      4.17815      4.11938      2.18917        -0.019849      0.377190     -0.021220
O	      4.07937      2.12247      4.28406        -0.236873     -0.035091      0.039974
O	      6.25706      4.32376      4.11480        -0.023163      0.047583     -0.023116
O	      6.41390      2.13879      6.38917         0.031327     -0.021667      0.293958
O	      8.33854      4.06289      6.50009         0.000968     -0.082329     -0.055052
O	      2.00503      4.11436      4.16054        -0.007536     -0.030097      0.009739
O	      4.26128      6.29770      4.25244        -0.041723      0.080608     -0.121187
O	      4.17534      4.22284      6.42761         0.012285     -0.051858     -0.065214
O	      6.23217      6.30169      6.25094         0.068878     -0.023259     -0.268957
O	      6.26589      4.24647      8.60096        -0.033916     -0.427792     -0.069672
O	      8.36897      6.26047      8.45500        -0.617178      0.041727     -0.014016
O	      2.10809      6.43038      6.51661        -0.165409      0.011235      0.112083
O	      4.06814      8.31523      6.24698         0.019248      0.089593     -0.141872
O	      4.05800      6.19138      8.45143        -0.106998      0.017262      0.089044
O	      6.32290      8.49495      8.48766        -0.066785      0.170451     -0.065020
O	      6.26610      6.18950     10.63952        -0.040905     -0.318372     -0.038549
O	      8.44012      8.35692     10.49600         0.170146      0.070681     -0.012573
