# total energy = -252.11755472 eV
 
CRYSTAL
PRIMVEC
0.009799 6.312395 6.389070 
6.331852 0.060065 6.338887 
4.272685 4.226401 -0.011392 
PRIMCOORD
36 1
Li	      2.20643      8.41859      6.41664         0.022762      0.023442      0.021524
Li	      4.17660      8.37136      8.46456        -0.042331      0.002300     -0.045032
Li	      2.13678      4.15840      2.14087        -0.034489     -0.069195     -0.047360
Li	      6.31155      6.39627      4.29496        -0.097027      0.012479     -0.025106
Li	      6.34166      4.35306      6.32602        -0.017994      0.047248     -0.029621
Li	      4.33514      8.37601      4.31734         0.028737     -0.035029      0.000934
Li	      6.36128      8.39386      6.29384         0.051445     -0.005179     -0.069710
Li	      4.30467      6.40788      6.40777        -0.013955     -0.024785      0.014142
Li	      4.24591      4.27257      8.44154         0.022026      0.083951     -0.077381
Ti	      4.37359     10.35531      6.48303        -0.045313     -0.401805     -0.059246
Ti	      6.48973      8.45985     10.55419         0.563386     -0.166307     -0.168250
Ti	      6.35601      2.32487      8.45506         0.383595      0.389454      0.281153
Ti	      4.10337      4.26735      4.30207        -0.541031      0.466648      0.549874
Mn	      6.37643      6.29545      8.42755        -0.091933     -0.059334     -0.188827
V	      8.44792      4.28560      4.20219         0.162609     -0.209052      0.203473
V	      8.45165      6.38582      6.32490        -0.225789     -0.004505      0.341793
Fe	      2.13925      6.35597      8.43435         0.047685     -0.055091     -0.006198
Co	      8.46048      6.44748     10.55304         0.075141     -0.073077      0.051929
O	      1.92516      2.06945      2.06564        -0.147916      0.120217      0.032110
O	      4.21944      4.26548      2.07366        -0.044079     -0.024462     -0.047148
O	      4.31345      2.18128      4.22568         0.144929     -0.022221      0.482759
O	      6.33018      4.13198      4.26882        -0.020639     -0.249386     -0.066493
O	      6.26786      2.10105      6.37792         0.003285     -0.035979     -0.052307
O	      8.61282      4.36734      6.24507         0.090333     -0.518287     -0.103867
O	      2.27227      4.19365      4.20085         0.283274     -0.069528     -0.019057
O	      4.30403      6.20373      4.09892         0.044203     -0.051167     -0.150430
O	      4.25874      4.20770      6.19312        -0.161421      0.556822     -0.555028
O	      6.50501      6.35557      6.33755        -0.148922      0.006851     -0.063883
O	      6.35154      4.15891      8.51300        -0.022730     -0.345591     -0.014430
O	      8.59717      6.40331      8.38569         0.219444      0.037885     -0.596755
O	      1.98101      6.32392      6.34368        -0.186904     -0.032169      0.049459
O	      4.27575      8.53221      6.39860         0.026772      0.324363      0.040935
O	      4.23666      6.34569      8.62206         0.091778      0.101428      0.026344
O	      6.39464      8.47759      8.68598         0.076517     -0.097453      0.382148
O	      6.27907      6.44602     10.74817        -0.036596      0.223475      0.000016
O	      8.41154      8.59323     10.69595        -0.458850      0.153040     -0.092463
