# total energy = -250.66894074 eV
 
CRYSTAL
PRIMVEC
0.038918 6.189414 6.363531 
6.391293 -0.020810 6.423689 
4.233498 4.138251 0.013345 
PRIMCOORD
36 1
Li	      4.26322     10.08958      6.44263         0.021108      0.050557      0.021335
Li	      2.40894      8.26274      6.37765        -0.020543     -0.036685      0.029711
Li	      4.32652      8.23225      8.30183        -0.012166      0.044879      0.057073
Li	      2.16393      2.15826      4.30759         0.013686     -0.035336     -0.055293
Li	      4.19509      2.12471      6.34252        -0.007956     -0.000843      0.038753
Li	      4.32354      8.20843      4.54661         0.038712      0.006697     -0.026598
Li	      6.21086      8.21909      6.33760         0.028058      0.017786     -0.037561
Li	      4.30686      6.33133      6.36526        -0.014541     -0.097636     -0.018755
Li	      4.23203      4.12776      8.37193         0.025358      0.005427     -0.021515
Ti	      6.34468      2.06234      4.39497        -0.022451      0.016756     -0.028891
Ti	      6.42223      2.07778      8.44213         0.159182     -0.124170      0.039461
Ti	      2.19715      6.15740      4.40601         0.076210     -0.066382      0.304452
Ti	      6.38161      6.21145      8.43180        -0.104072      0.067664     -0.127183
V	      8.53520      4.10944      8.51048        -0.030612     -0.079628     -0.049664
V	      6.32163      4.11558      6.40741         0.017795      0.069933     -0.026393
Cr	      2.22827      6.13917      8.38959         0.007570      0.005968     -0.068827
Cr	      8.58371     10.27719     10.72558        -0.029550     -0.015124      0.025895
Ni	      4.23714      4.13080      4.30323         0.006768     -0.039278     -0.035628
O	      1.95263      2.01174      2.13081        -0.212732      0.000008     -0.037526
O	      4.23762      4.24445      2.20817        -0.014831      0.073522     -0.101355
O	      4.39939      1.99242      4.30861         0.122656     -0.042966      0.034873
O	      6.47665      4.10002      4.30575         0.050175     -0.042425      0.037507
O	      6.31393      2.05332      6.43717        -0.015721     -0.014796      0.016888
O	      8.35613      4.10986      6.35752         0.034289      0.016298     -0.057683
O	      2.16538      4.22270      4.21434        -0.097098      0.109072      0.065387
O	      4.10251      6.22860      4.09855        -0.138679      0.105828     -0.019241
O	      4.39096      4.15349      6.30407         0.003054      0.045348      0.146508
O	      6.41022      6.16202      6.53547         0.009859      0.061000      0.218287
O	      6.40329      4.14339      8.49683        -0.066352     -0.023495     -0.009660
O	      8.48842      6.21861      8.62437        -0.017536      0.067817      0.009256
O	      2.15198      6.17769      6.21366         0.013069     -0.025750     -0.344878
O	      4.28351      8.23059      6.42215         0.011900     -0.025710     -0.014040
O	      4.45102      6.15106      8.69246         0.187518      0.018663     -0.015054
O	      6.44149      8.19763      8.64026        -0.008547     -0.137313     -0.004747
O	      6.43336      6.20283     10.59513         0.013228      0.037594      0.038608
O	      8.37545      8.21819     10.71670        -0.026808     -0.013279      0.016499
