# total energy = -246.57368814 eV
 
CRYSTAL
PRIMVEC
0.009406 6.351923 6.348459 
6.179500 0.015179 6.342993 
4.119808 4.231280 0.010043 
PRIMCOORD
36 1
Li	      4.15141      4.21085      0.07579        -0.049427     -0.032356      0.048398
Li	      6.10372      4.22463      2.07804        -0.026515     -0.034988      0.003303
Li	      4.12090      8.53937      8.38840        -0.039372      0.022119     -0.067844
Li	      6.15863      2.10572      4.27115         0.067096     -0.018131     -0.039181
Li	      0.07015      2.04905      2.06413         0.012806     -0.056038      0.018274
Li	      6.17182      4.19904      6.34760         0.082091      0.000624      0.030985
Li	      4.19041      8.44723      4.33787        -0.065496      0.021706      0.010750
Li	      6.06436      8.48074      6.36234        -0.081111     -0.007292      0.021688
Li	      4.11968      6.43891      6.30678        -0.007851      0.053121      0.007413
Ti	      8.24182      2.13575      6.35025         0.176857      0.225171     -0.006493
Ti	      8.14636      4.30028      4.27928        -0.129527     -0.276665      0.030390
Ti	      2.06219      6.36208      4.36342        -0.014435      0.130119     -0.059749
Ti	      6.12538      6.44771      8.33911        -0.065693      0.082104     -0.207463
V	      2.07024      4.18244      2.12933        -0.008596      0.028986     -0.302336
V	      4.16153      4.20078      4.28081         0.013269      0.037423     -0.066134
V	      4.17416      4.24076      8.36375         0.007446     -0.015779      0.247749
Cu	      6.09730      6.33199      4.31110        -0.099225     -0.085790      0.087441
Ni	      4.25144      2.12842      6.33401         0.017736     -0.083014      0.086249
O	      2.03152      2.22983      1.98706         0.023709     -0.161693      0.060864
O	      4.03699      4.21345      2.28606         0.044091      0.001584      0.065569
O	      4.18578      2.06964      4.28266        -0.004965      0.084601     -0.078521
O	      6.27610      4.15305      4.20896         0.151738      0.012781      0.013187
O	      6.28623      2.12295      6.34703         0.190803     -0.007773     -0.023461
O	      8.26575      4.25831      6.31820        -0.023161     -0.083176     -0.079079
O	      2.07870      4.38918      4.21422        -0.026736      0.015831      0.137654
O	      3.97972      6.26275      4.24007        -0.020456     -0.058917      0.026787
O	      4.16973      4.18821      6.36186        -0.005948      0.152502     -0.062818
O	      6.23251      6.36720      6.49372        -0.084424      0.018832      0.231638
O	      6.19054      4.36266      8.45595        -0.038184      0.078762     -0.003866
O	      8.19454      6.33120      8.50744        -0.030812      0.012298      0.048932
O	      2.02719      6.42473      6.26696         0.042793     -0.045391     -0.056031
O	      3.96893      8.47101      6.33416        -0.194211     -0.014257      0.000877
O	      4.19862      6.33011      8.55508         0.158950      0.138969     -0.066499
O	      6.29610      8.36208      8.43667        -0.023590     -0.096117     -0.032357
O	      6.19499      6.36189     10.46040         0.053350      0.041950     -0.055516
O	      8.26332      8.45956     10.51940        -0.002999     -0.082108      0.029200
