# total energy = -223.16006008 eV
 
CRYSTAL
PRIMVEC
0.045728 6.287427 6.336789 
6.148492 0.063720 6.317973 
4.124536 4.204339 0.017272 
PRIMCOORD
36 1
Li	      6.19854      6.30262     12.59708        -0.037750     -0.047829      0.014470
Li	      4.22054      8.37923      8.46748        -0.003185     -0.008446     -0.003581
Li	      4.24201      6.40694     10.54364         0.051387      0.014323      0.004863
Li	      4.13867      6.29570      2.17374        -0.015308     -0.003450      0.072357
Li	      4.14261      4.19370      4.26845        -0.035218     -0.010066      0.035501
Li	      4.14680      2.17341      6.23823         0.024085      0.016252     -0.065733
Li	      4.17419      8.40985      4.31747        -0.011343     -0.004921      0.067623
Li	      6.14209      8.40815      6.32569        -0.039475     -0.001381     -0.010665
Li	      6.14289      6.38931      8.51081        -0.032794      0.017263      0.063843
Sc	      8.27442      4.32347      8.41530         0.049046      0.029887     -0.009471
Cr	      2.06715      6.26685      4.25818        -0.021371     -0.071446      0.102180
Fe	      8.27267      8.48983     12.64042        -0.015401     -0.086834      0.011191
Fe	      6.07011      4.19182      2.16999         0.096227      0.002274     -0.041991
Fe	      2.19110      2.13121      4.25043        -0.098526      0.019072     -0.101513
Fe	      4.18883      6.34450      6.32931        -0.064603     -0.028393      0.101871
Fe	      4.15953      4.21229      8.39093        -0.033053     -0.021789      0.120011
Co	      6.11491      2.14200      4.23009        -0.056959     -0.066171      0.008403
Co	      6.16679      4.22185      6.29371        -0.023272     -0.034469     -0.012795
O	      2.04694      2.07178      2.15514         0.002431      0.006199     -0.039935
O	      4.16271      4.23548      2.05554        -0.162509      0.016869     -0.002166
O	      4.12668      2.12810      4.22445         0.149717      0.044826     -0.046046
O	      6.17117      4.19228      4.26406         0.024046      0.010124      0.076341
O	      6.19146      2.28847      6.16718        -0.031551      0.044103     -0.023324
O	      8.11724      4.16497      6.33582        -0.062565      0.153061     -0.013166
O	      2.05628      4.19281      4.19915        -0.015575      0.065462     -0.000350
O	      4.14456      6.30567      4.32891         0.005099     -0.014246     -0.105296
O	      4.21127      4.25815      6.39941         0.061213     -0.019308     -0.095289
O	      6.18331      6.20149      6.25276         0.070996     -0.021819      0.080676
O	      6.14831      4.24369      8.25669         0.052829     -0.011969     -0.055212
O	      8.24937      6.38576      8.57209        -0.021710      0.008631     -0.065427
O	      2.11193      6.34592      6.33489        -0.017500     -0.044056     -0.044989
O	      4.07806      8.33572      6.34091         0.083038      0.011402      0.034207
O	      4.04707      6.22551      8.38161         0.063014      0.064896     -0.002969
O	      6.24011      8.47545      8.58626        -0.015600     -0.085303      0.021144
O	      6.24247      6.49547     10.58504         0.036637      0.028595     -0.024454
O	      8.13826      8.35453     10.56391         0.045501      0.028656     -0.050312
