# total energy = -224.86757111 eV
 
CRYSTAL
PRIMVEC
0.003949 6.356662 6.203221 
6.366602 0.004947 6.201959 
4.247157 4.239805 0.000600 
PRIMCOORD
36 1
Li	      6.37637      6.34119     12.26004        -0.035982      0.022881     -0.036041
Li	      8.53235      8.46044     12.25240         0.034325     -0.006572     -0.029900
Li	      4.26686      2.09696      2.14610        -0.008202     -0.004442      0.072977
Li	      8.54410     10.59228     10.38824         0.020453     -0.011469      0.014577
Li	      6.38239      8.42927     10.37292         0.009883     -0.011235      0.033037
Li	      2.17455      2.09612      4.13570         0.048217      0.000272     -0.071369
Li	      4.26497      4.19413      4.14631        -0.002755     -0.038444     -0.066277
Li	     10.52924      8.52736     10.43417        -0.055138      0.035239      0.018359
Li	      8.44874      6.44820     10.41320        -0.037092      0.037505      0.057889
Sc	      2.20087      4.16741      2.16157         0.099769     -0.101576      0.057607
Cr	      4.24335      6.37076      6.12829        -0.110670      0.109154     -0.128818
Fe	      6.33296      4.27545      2.15817         0.010737     -0.012720     -0.038875
Fe	      4.26764      6.34045      2.20805         0.011233     -0.003106     -0.161123
Fe	      4.27490      2.10611      6.01077         0.037021     -0.041202      0.148503
Fe	      6.40706      4.18876      6.04695         0.039946     -0.020222     -0.064425
Fe	      2.01536      4.29142      6.07621         0.041784     -0.006315      0.047781
Fe	      8.49284      8.47714      8.43794        -0.025063      0.045043     -0.123145
Fe	      6.32183      6.42351      8.43917         0.029589     -0.041726     -0.105837
O	      2.03631      2.08288      2.06381         0.031822      0.065125     -0.021602
O	      4.28546      4.32650      2.04103        -0.057399     -0.037899     -0.008730
O	      4.23519      2.13553      4.18551        -0.022754      0.010148     -0.226773
O	      6.37242      4.23909      4.10196        -0.014289      0.021351      0.026405
O	      6.27312      2.22869      6.29141         0.074752     -0.074770      0.030712
O	      8.38711      4.32745      6.24216         0.044610     -0.048720      0.014939
O	      2.14458      4.24433      4.16775         0.017613     -0.006627     -0.125617
O	      4.23284      6.36929      4.11013        -0.010466     -0.002323      0.210769
O	      4.27996      4.26928      6.24259        -0.042971      0.031212     -0.006872
O	      6.33138      6.35913      6.27561         0.002742     -0.004045     -0.057619
O	      6.36371      4.25008      8.19307        -0.008682      0.006052      0.029687
O	      8.47738      6.37754      8.19443         0.002963      0.004097      0.029389
O	      2.22653      6.27983      6.29752         0.021585      0.065076     -0.034969
O	      4.33797      8.36470      6.21181        -0.099870     -0.024369      0.057247
O	      4.25014      6.29468      8.17313        -0.011826      0.045722     -0.002252
O	      6.44610      8.47859      8.18500        -0.057964      0.031199     -0.030212
O	      6.36623      6.36960     10.25319         0.019714     -0.015585      0.261978
O	      8.49011      8.48280     10.26321         0.002366     -0.016709      0.228596
