# total energy = -200.78891854 eV
 
CRYSTAL
PRIMVEC
-0.006672 6.282243 6.169704 
6.111126 0.012303 6.150514 
4.092110 4.193283 -0.009679 
PRIMCOORD
36 1
Li	      8.16650      2.12809      6.15394         0.092980      0.146511     -0.103555
Li	      4.04114      8.31459      8.19668         0.039469     -0.023172      0.017709
Li	      8.18396      4.18767      4.14976        -0.029938     -0.047745      0.000527
Li	      8.15653      4.27254      8.15049         0.035995      0.108234      0.013589
Li	      8.18271      6.21329      6.15957        -0.043900     -0.005412      0.028836
Li	      6.23272      4.19878      6.10599        -0.001549      0.006090      0.027436
Li	      8.15854      6.30829     10.24558         0.046853      0.025506     -0.044705
Li	      1.99853      4.25103      6.09963         0.019980     -0.118636     -0.047998
Li	      4.02942      6.28926      6.14004         0.068130     -0.014226     -0.013036
Sc	      4.04921      4.18212      8.06654         0.360289      0.016981     -0.102692
Mn	      6.11765      2.06564      4.15747         0.033201      0.146156     -0.014896
Cr	      2.09167      2.14141      4.18578         0.143392      0.033226      0.863905
Co	     10.18349      8.45332     10.29933         0.271664     -0.450423      0.075267
Ni	      4.06420      4.17128      0.01933        -0.836651     -0.153134      0.211168
Ni	      2.03862      0.02016      2.04263         0.318809      0.393132     -0.355840
Ni	      6.11185      2.10921      8.18435        -0.313108      0.178687      0.024864
Ni	      4.06552      4.22313      4.14666        -0.101428      0.064741      0.018281
Ni	      6.10026      6.28344      8.15469        -0.011500     -0.249906     -0.422654
O	      8.31649      4.16447      6.17720        -0.025654      0.056808     -0.032860
O	      2.00513      2.02601      2.25683         0.138890     -0.458195     -0.473134
O	      4.18555      4.27067      2.10543        -0.592161     -0.038091     -0.305425
O	      4.06753      2.18576      4.10130         0.122138     -0.217692     -0.033167
O	      6.11414      4.15979      4.00565         0.234017     -0.067227      0.454279
O	      6.12675      2.00303      6.08050         0.145817      0.329951     -0.208207
O	      2.02378      4.05654      4.11546        -0.798851     -0.090704     -0.110475
O	      4.19504      6.33182      4.09674        -0.025139      0.782054      0.086017
O	      4.07585      4.21916      6.08214        -0.042780      0.014466      0.339958
O	      6.13672      6.22481      6.01584        -0.072081      0.010818     -0.185249
O	      6.11778      4.23564      8.38292         0.035701     -0.250050     -0.033410
O	      8.14111      6.30818      8.19641         0.130816     -0.012731     -0.008911
O	      1.87468      6.27838      6.32448         0.400576     -0.049141     -0.115905
O	      4.06746      8.52548      5.98340         0.158422     -0.351912     -0.047318
O	      4.03453      6.28652      8.15504         0.138757      0.002764     -0.015840
O	      6.06849      8.32594      8.34204        -0.110424      0.681711      0.236372
O	      6.11253      6.35430     10.24082        -0.003623     -0.395784      0.278360
O	      8.09163      8.37467     10.23551         0.072892     -0.003655     -0.001289
