# total energy = -214.87279064 eV
 
CRYSTAL
PRIMVEC
0.057203 6.153054 6.235558 
6.269495 0.042449 6.250601 
4.201009 4.134045 0.006841 
PRIMCOORD
36 1
Li	      2.09042      2.07384      0.05794        -0.007466      0.032843     -0.077513
Li	      6.35558     10.28382      8.33235         0.131804     -0.130519      0.015476
Li	      6.33808      2.14758      8.28148         0.049071      0.016090     -0.078465
Li	      2.07924      2.12550      4.16616        -0.003574     -0.047545      0.144596
Li	      4.29284      2.14194      6.20093        -0.013927     -0.057917     -0.039073
Li	      6.20762      4.06220      6.29897        -0.005737      0.027056     -0.137278
Li	      4.22853      8.14652      4.17049        -0.065164     -0.004611      0.062459
Li	      2.13351      4.12740      6.20135         0.009222     -0.061207      0.090527
Li	      8.39939      8.26009      8.33699        -0.126836      0.091734     -0.013981
Sc	      6.32552      6.18066      8.26674        -0.381884      0.165588     -0.281460
Mn	      0.09018      6.15578      6.24693        -0.116591      0.009760     -0.257258
Cr	      2.18745      6.17698      4.15905         0.280569      0.257985      0.354303
Co	      8.21167      4.12438      4.21881         0.749544      0.417080     -0.402097
Co	      6.27288      2.09321      4.19247         0.104718      0.289201     -0.046992
Co	      2.08753      4.06427      2.09556         0.075236      0.298987     -0.074549
Co	      4.24140      4.13469      4.21623         0.353532     -0.074559      0.205472
Co	      4.25192      6.16905      6.22430        -0.634102      0.098214      0.431001
Ni	      4.15820      2.09776      2.08741         0.270568     -0.154071      0.021463
O	      2.12827      2.24491      2.10180        -0.057391     -0.062530     -0.010839
O	      4.09583      4.14729      1.97746        -0.146950      0.072862      0.004518
O	      4.32239      2.16296      4.16026         0.148497      0.052655     -0.073200
O	      6.24668      4.00376      4.21295        -0.912516     -0.187511     -0.086281
O	      6.29333      1.95753      6.14181         0.046016      0.031697     -0.070595
O	      8.55143      4.19515      6.08281        -0.138208     -0.142753      1.125850
O	      2.34431      4.19294      4.13630        -0.195227     -0.033689     -0.467065
O	      4.17074      6.07384      4.23306         0.067159     -0.028204      0.033245
O	      4.18592      4.20813      6.10043         0.039019     -0.043025      0.017139
O	      6.13140      6.23274      6.25913         0.364319     -0.096156     -0.080894
O	      6.41601      4.11994      8.35592         0.355671     -0.054798      0.065228
O	      8.39208      6.08292      8.39093         0.048395     -0.100474      0.063138
O	      2.11430      6.17807      6.18478        -0.047691     -0.010738     -0.119710
O	      4.26144      8.31116      6.22396         0.002547     -0.007239      0.076174
O	      4.21826      6.18578      8.44750        -0.098819     -0.052428     -0.541185
O	      6.31296      8.24789      8.47804        -0.133896     -0.042028      0.152885
O	      6.38591      6.25892     10.50366         0.126335      0.005256      0.084827
O	      8.27879      8.25733     10.38884        -0.136239     -0.475007     -0.089865
