# total energy = -208.21360335 eV
 
CRYSTAL
PRIMVEC
-0.002705 6.333965 6.172221 
6.349948 -0.008664 6.177836 
4.221023 4.214370 0.006796 
PRIMCOORD
36 1
Li	      8.42931      2.13434      6.15246        -0.042029      0.079946     -0.030383
Li	      2.15542      0.03297      2.11914        -0.011082     -0.011199     -0.028373
Li	      8.41354      4.19245      4.20400         0.046913      0.011950      0.029222
Li	      6.42385      8.41533     10.27691         0.023492     -0.067903      0.101831
Li	      6.30771      2.22450      8.18717         0.022013     -0.030511     -0.104941
Li	      8.35289      4.17679      8.23344        -0.010977     -0.017735     -0.150459
Li	      8.52493      6.19880      6.26510         0.069558     -0.064070     -0.042119
Li	      6.29375      4.27382     10.15928        -0.051344      0.102213      0.050102
Li	      6.40398      6.27799      8.30675        -0.030265     -0.018738      0.080116
Sc	      6.26188      8.46180      6.21920        -0.159536      0.047843      0.255846
Mn	      4.20035      6.33410      6.17420        -0.134841      0.111302      0.403169
Cr	      8.48419      8.41178      8.29232         0.079032      0.348576     -0.328848
Fe	      4.28079      4.16883      3.97735         0.027328     -0.045897     -0.199320
Co	      6.17053      0.18791      6.17200         0.025561     -0.069787      0.571633
Cu	      4.19132      2.05784      2.10006         0.073079      0.068495     -0.022826
Cu	      2.11896      2.09156      4.07205        -0.005642     -0.001285     -0.001886
Cu	      6.44507      4.11261      6.21216         0.211063     -0.232506      0.064537
Cu	      8.45060      6.37616     10.25444        -0.239972      0.152555      0.089416
O	      8.49871      4.21796      6.19076        -0.416844     -0.076634      0.017407
O	      6.25196      4.22388      8.13855         0.055277      0.043115      0.140653
O	      6.46047      6.28010     10.54634         0.204052     -0.062604     -0.452018
O	      8.50222      8.43347     10.18299        -0.025412     -0.348597      0.368256
O	      2.20331      2.06580      2.17796        -0.059282      0.021658      0.066542
O	      4.29646      4.09801      1.95100        -0.003110      0.112106     -0.007153
O	      4.19033      2.18198      4.06119        -0.067478     -0.040730      0.130786
O	      6.23534      4.22955      4.24202         0.128090      0.231464     -0.119905
O	      6.35150      2.07072      6.20830         0.067578      0.358171     -0.020984
O	      2.24349      4.24092      4.09048        -0.170294     -0.025008     -0.049923
O	      4.18049      6.25963      4.19752         0.075714      0.063310     -0.079578
O	      4.17938      4.36185      6.19065        -0.048267     -0.044223     -0.183754
O	      6.14814      6.34473      6.06523         0.043468      0.088226     -0.083730
O	      8.43480      6.46480      8.30158         0.028078     -0.289707      0.236752
O	      2.25792      6.34257      6.09712         0.262796     -0.078292     -0.184925
O	      4.19099      8.27034      6.25775         0.098030     -0.258367     -0.154112
O	      4.23509      6.28239      8.09301         0.009526     -0.063637     -0.207580
O	      6.40384      8.41469      8.23849        -0.074274      0.006501     -0.153450
