# total energy = -214.27472099 eV
 
CRYSTAL
PRIMVEC
-0.005561 6.114670 6.116184 
6.558854 0.002548 6.109514 
4.344285 4.043106 0.031327 
PRIMCOORD
36 1
Li	      4.31895      4.02060      0.20068        -0.031132      0.010327     -0.037476
Li	      6.37165      3.95051      2.14340         0.000389     -0.070336     -0.043333
Li	      4.37902      8.14251      8.15881        -0.002647     -0.011228      0.007440
Li	      4.26960      0.13013      3.97410         0.042873     -0.036951      0.023859
Li	      6.51239      2.05336      4.04256         0.045460     -0.000419      0.002832
Li	      4.39978      5.94296      2.09112        -0.034311      0.068229     -0.028987
Li	      2.28967      4.03048      2.10247        -0.000836      0.029552     -0.027998
Li	      6.27398      8.19552      6.16489        -0.066719     -0.030475      0.016550
Li	      4.34804      4.11422      8.13891        -0.002952      0.059003     -0.008223
Sc	      8.63209      2.06152      6.23962         0.055212     -0.049028     -0.149282
Mn	      8.62166      6.04747     10.17844         0.214346     -0.015025      0.171029
Cr	      6.57420      6.21673      8.09306        -0.402761      0.190187      0.051910
Fe	     10.84150      8.08066     10.13683        -0.009207     -0.045831      0.083033
Co	      4.51082      4.03324      4.06577        -0.022580     -0.026477     -0.028972
Co	      4.49015      2.05401      6.13235         0.080189      0.019097     -0.000419
Co	      6.63980      4.09431      6.13339        -0.065796     -0.101084     -0.036116
Cu	      2.30679      2.06526      4.01239        -0.119972      0.082583      0.039411
Cu	      4.25529      6.05556      6.19712         0.019734     -0.072048      0.132429
O	      4.35214      3.98253      2.24799         0.011437      0.102178      0.005376
O	      4.66248      6.11762      8.07511         0.298421      0.004625     -0.007256
O	      2.14781      1.97104      2.10156        -0.007850      0.015933      0.056355
O	      4.53079      2.16284      4.24172        -0.010287      0.009716      0.031493
O	      6.60219      4.16492      4.21148         0.083539     -0.106774      0.084761
O	      6.46554      2.15088      6.17652         0.025122      0.064647      0.006569
O	      8.63449      4.15982      6.11644        -0.043413     -0.078133      0.038400
O	      1.97301      4.08398      4.10773         0.017481     -0.076727     -0.066085
O	      4.02924      5.98187      4.14504        -0.153009     -0.112348     -0.088381
O	      4.68480      4.05946      6.01826         0.128022      0.103793     -0.004597
O	      6.86456      6.04817      6.09639         0.140558     -0.011257     -0.020117
O	      6.56511      4.19817      8.11054        -0.003954      0.001751     -0.127284
O	      8.55398      6.08567      8.18343        -0.004696      0.016810     -0.039752
O	      1.96541      6.09390      5.96325        -0.107856      0.027640     -0.060413
O	      4.19412      8.03877      6.04365        -0.014944      0.104650      0.013823
O	      6.61415      8.03633      8.09944        -0.014492     -0.206213      0.033528
O	      6.67050      6.06888     10.08356        -0.013768      0.040736     -0.067415
O	      8.79398      7.98414     10.18172        -0.029601      0.098895      0.043306
