# total energy = -136.10435510 eV
 
CRYSTAL
PRIMVEC
2.085641 2.085705 0.000031 
-4.189747 4.189980 3.953228 
4.197566 -4.197501 7.921878 
PRIMCOORD
24 1
Li	     -1.03196      3.11594      4.97436         0.007244     -0.004863     -0.032503
Li	      1.05901      1.02759      0.99481         0.002669     -0.004231     -0.024090
Li	      1.05736      1.02708      4.97068         0.033875     -0.032919     -0.018922
Li	      1.02802      1.05865      8.87744        -0.008892      0.008357      0.034469
Li	      3.12611     -1.04098      4.92875        -0.031647      0.031398      0.013547
Li	      3.12853     -1.04163      8.90336        -0.006197      0.004900      0.024493
Mn	      1.07076      3.10033      2.96183        -0.009086      0.010003      0.046230
Mn	      3.11522     -3.11446      6.93646         0.011551     -0.012754     -0.042481
Mn	      1.05453     -1.05366     10.88654        -0.002577      0.000618      0.001142
Ni	      1.04005      3.13054      6.92647         0.001211      0.000293     -0.002620
Ni	      3.18722      0.98315      2.95436        -0.042151      0.043249      0.038774
Ni	      3.08332      1.08801      6.94437         0.042924     -0.043714     -0.040477
O	     -1.03812      3.12284      6.91391         0.034794     -0.034147     -0.009156
O	      0.98655      1.09900      2.94140        -0.097196      0.096224     -0.012440
O	      1.03268      1.05255      6.93857        -0.033978      0.033648      0.006974
O	      0.99284      1.09396     10.89861        -0.064880      0.065224      0.001611
O	      3.19941     -1.11274      6.95718         0.097790     -0.100115      0.013025
O	     -0.99586      3.08122      2.95253         0.063214     -0.061997     -0.001248
O	     -3.14091      3.14119      4.85465        -0.002849      0.002379     -0.058905
O	      3.14970     -3.14885      8.90990        -0.001604     -0.000265      0.002175
O	      1.04777      3.12263      4.82305         0.001872      0.000251     -0.126527
O	     -1.05251      1.05286      9.02902         0.000577      0.000755      0.122020
O	      3.13441      1.03550      4.94932         0.002345      0.000772      0.003256
O	      1.05240     -1.05140      8.99662         0.000992     -0.003065      0.061653
