# total energy = -45.34690042 eV
 
CRYSTAL
PRIMVEC
2.086710 2.086755 0.000205 
-2.086707 2.086752 0.000068 
0.000289 0.000582 7.997856 
PRIMCOORD
8 1
Li	      1.04405      1.04653      0.94517        -0.002565     -0.005653      0.051183
Li	      1.04301      1.04636      5.05420         0.000378     -0.006561     -0.049749
Mn	     -1.04280      1.04475      2.99979        -0.003161      0.002892     -0.000316
Ni	      1.04204      3.13158      6.99859         0.001478      0.003625      0.001678
O	      1.04377      1.04495      2.99976        -0.000671     -0.000379      0.000862
O	      1.04193      1.04464      6.99874         0.003836      0.003976     -0.001075
O	     -1.04290      1.04584      1.11961        -0.001724     -0.002579      0.032182
O	      1.04283      3.13087      4.88030         0.002428      0.004680     -0.034764
