# total energy = -217.10200925 eV
 
CRYSTAL
PRIMVEC
0.069404 6.340352 6.170678 
6.271524 0.024177 6.216482 
4.188647 4.264985 0.007760 
PRIMCOORD
36 1
Li	      6.37616      6.37168     12.34084        -0.000644      0.006276      0.012560
Li	      8.39036      4.24432      4.25092         0.040338     -0.028175     -0.029201
Li	     10.39378      6.37319      8.27335         0.014574     -0.032476      0.002510
Li	      4.21039      2.20344      6.19814        -0.066428     -0.027663      0.009939
Li	      6.32689      4.18404      6.15130         0.040485      0.059562      0.036957
Li	      4.12177      8.30720      4.22111         0.016269     -0.071521      0.019209
Li	      2.21109      6.44521      4.15360         0.015522      0.009419     -0.017761
Li	      4.16992      6.36959      6.13639         0.089728      0.024706     -0.004909
Li	      8.39050      8.40211      8.20503        -0.018921     -0.014651      0.008127
Sc	      8.39098      4.25188      8.21737         0.022527     -0.024769     -0.140031
V	      6.26429      6.26573      8.24276        -0.198936      0.037477     -0.660500
Cr	      4.20956      4.28324      4.15130        -0.162671     -0.039713      0.265460
Co	      2.18284      8.46397      6.15842        -0.038657     -0.059380     -0.074278
Co	      4.30445      8.50899      8.24145        -0.243040     -0.116289     -0.218703
Co	      6.43201      8.47542     10.40899         0.136092      0.056485      0.229282
Co	      6.29699      6.34286      4.24013        -0.101550      0.022546     -0.116619
Co	      2.11433      4.33706      6.16124        -0.060899     -0.249970      0.039142
Cu	      2.20291      6.37595      8.20898         0.085554      0.039047     -0.094610
O	      2.27185      2.11844      2.01067         0.187421      0.037188     -0.137684
O	      4.17108      4.12399      2.12621        -0.094206      0.026769      0.071434
O	      4.21574      2.23053      4.03910        -0.043044     -0.020712     -0.041676
O	      6.23733      4.16454      4.04489        -0.057066     -0.056214      0.041853
O	      6.45228      2.14380      6.19874        -0.020736      0.023545     -0.208426
O	      8.37868      4.09873      6.22398         0.044854      0.017459      0.043958
O	      2.14794      4.22071      4.16892         0.086300     -0.054399      0.413817
O	      4.26715      6.26153      4.05692         0.161262      0.055191      0.042721
O	      4.03464      4.25578      6.16426        -0.271722      0.025479     -0.293106
O	      6.31159      6.40630      6.33228        -0.040736      0.036304      0.491326
O	      6.23301      4.47186      8.30458         0.050201     -0.080075      0.001313
O	      8.20038      6.33639      8.23237        -0.014588      0.049093      0.021211
O	      2.17223      6.46465      6.27246        -0.000104      0.081887      0.057405
O	      4.31011      8.52048      6.28274         0.328273      0.039038      0.218640
O	      4.41233      6.57209      8.25690         0.205506      0.063388      0.071338
O	      6.24300      8.46542      8.20190        -0.006732      0.063061     -0.271329
O	      6.32481      6.58292     10.10751         0.058657      0.092076      0.082653
O	      8.39209      8.50038     10.46803        -0.142882      0.010012      0.127978
