# total energy = -202.01339343 eV
 
CRYSTAL
PRIMVEC
0.049989 6.200679 6.373197 
6.205414 -0.004005 6.427517 
4.131915 4.164426 0.002682 
PRIMCOORD
36 1
Li	      6.25038      4.12130      2.27201         0.051125     -0.039316      0.053926
Li	      4.10139      2.04463      2.22240        -0.008196     -0.036318      0.052097
Li	      8.18991      4.13305      4.24774        -0.020199     -0.001737     -0.060592
Li	      6.16048      2.21028      4.20991         0.002841      0.020907     -0.058356
Li	      6.27968      6.14330      4.39348         0.013125     -0.006251      0.046357
Li	      6.15722      4.25541      6.28865        -0.009214      0.013362     -0.068675
Li	      8.32616      6.20759     10.63285         0.021316      0.001172     -0.010175
Li	      6.32753      8.20102      6.53722        -0.011742      0.012703      0.094193
Li	      4.22881      6.06898      6.57466         0.007673     -0.054380      0.084191
Sc	      4.23624      8.18114      4.26423         0.082416     -0.027565      0.029703
V	      0.22578      6.15863      6.28513         0.027319     -0.134239     -0.023080
Cr	      6.21161      2.03382      8.48335         0.173403      0.051997      0.183393
Cu	      8.23479      2.15922      6.34053         0.066540      0.035748      0.018749
Cu	      4.13964      4.15573      4.27529        -0.028350      0.081654      0.145746
Ni	      8.29344      4.14780      8.48392        -0.118603      0.086145      0.186074
Ni	      4.10164      2.09916      6.37432        -0.786687      0.479574     -0.102808
Ni	      8.24926      8.31535      8.57905         0.010420      0.097782      0.257139
Ni	      6.19427      6.26781      8.48180        -0.098673      0.006619      0.117626
O	      4.14824      4.02857      6.61671         0.213685      0.296371     -0.440361
O	      1.97013      2.15844      1.83715        -0.129698     -0.202329      0.250708
O	      4.10441      4.22246      1.85093         0.163160      0.026641     -0.221165
O	      4.13825      2.28976      4.32849        -0.038828     -0.158957      0.069001
O	      5.98838      4.17802      4.28649         0.171506      0.026946      0.025688
O	      6.06073      1.95511      6.46767         0.758440     -0.059048     -0.084007
O	      8.35037      4.30459      6.43015         0.106942     -0.708337     -0.327124
O	      2.20443      4.13427      4.11555        -0.040171     -0.018534      0.158983
O	      4.17805      6.10728      4.10259        -0.016961     -0.020362     -0.054980
O	      6.33951      6.22934      6.47433        -0.305967     -0.170693     -0.148795
O	      6.17253      4.08390      8.60650         0.024233     -0.093269     -0.002633
O	      8.30381      6.25313      8.54430         0.178738     -0.123568     -0.104673
O	      1.97848      6.24344      6.34966         0.040138      0.153843     -0.026322
O	      4.23004      8.47510      6.36857        -0.128683      0.033197      0.015076
O	      4.21370      6.10211      8.57588        -0.128728      0.241793      0.053225
O	      6.34952      8.24256      8.59456        -0.159905      0.101309     -0.032716
O	      6.25322      6.15538     10.87995         0.015374      0.052714      0.164628
O	      8.38299      8.27339     10.77022        -0.097790      0.034423     -0.240042
