# total energy = -209.78535986 eV
 
CRYSTAL
PRIMVEC
0.005067 6.239604 6.279050 
6.231118 -0.007164 6.291388 
4.164872 4.178626 -0.015498 
PRIMCOORD
36 1
Li	      6.29250      4.16969      2.20109         0.016216     -0.005714      0.037982
Li	      8.20548      4.16881      4.12935        -0.012149      0.020040     -0.018559
Li	      6.21852      6.15389      4.23230        -0.001192      0.001052      0.077167
Li	      4.32189      4.12018      4.26193        -0.014294     -0.025557      0.138412
Li	      8.24644      6.30756      6.26634        -0.098201      0.060652     -0.021239
Li	      6.17182      4.28104      6.16196        -0.034548      0.185603     -0.029134
Li	      4.23850      6.18509      6.31606         0.023348     -0.009110      0.028078
Li	      4.20746      4.21401      8.33048         0.033684      0.059274     -0.043977
Li	      6.18336      6.19368      8.27981        -0.057197     -0.021521     -0.086397
Sc	      8.36847      6.25576     10.37917         0.095805     -0.033708     -0.086188
V	     10.31066      4.26286      6.29409        -0.064397     -0.193197      0.010144
Cr	      6.33058      8.21284      6.30043         0.070118     -0.230078      0.028688
Fe	      4.13825      1.93851      2.23332        -0.042555      0.349234     -0.151177
Co	      6.23463      4.15967     10.47080         0.034497     -0.070471     -0.015466
Ni	      2.14365      8.28137      6.27100         0.067800     -0.024968      0.002229
Ni	      6.22480      2.22040      4.09382         0.067129     -0.165554     -0.038758
Ni	      0.03691      2.12380      2.13286         0.061234     -0.087223      0.002452
Ni	      8.27780      4.15323      8.40315         0.025951      0.019656      0.039211
O	      6.23663      4.13680      4.23697         0.031981      0.136024     -0.019962
O	      2.13698      2.13222      2.00186        -0.111989     -0.115711      0.057819
O	      4.13772      4.09397      1.88548         0.103661      0.036080     -0.073922
O	      4.22953      2.09784      4.11251        -0.043485      0.026281      0.289802
O	      6.28750      1.89189      6.26939        -0.033901      0.155419     -0.030753
O	      8.50111      4.11963      6.30144         0.022856      0.033309     -0.087062
O	      1.96010      4.15864      4.25707        -0.052304      0.001398      0.087182
O	      4.18027      6.41269      4.16329        -0.054174      0.052211      0.107093
O	      3.95142      4.22686      6.29727        -0.029420     -0.005689     -0.018342
O	      6.22643      6.41198      6.28446         0.003785      0.152061     -0.023235
O	      6.26662      4.13702      8.55350        -0.100653      0.104733      0.051112
O	      8.39338      6.17446      8.36422        -0.052805      0.102388      0.015659
O	      1.90273      6.15580      6.25879        -0.014761     -0.036410     -0.003908
O	      4.24300      8.45312      6.16425         0.012751      0.017601     -0.035006
O	      4.13076      6.38333      8.32732        -0.042924     -0.516549     -0.027476
O	      6.12375      8.30675      8.28943         0.181119      0.028859     -0.113000
O	      6.23106      6.16422     10.64413        -0.011507     -0.015992      0.012888
O	      8.39659      8.32113     10.52955         0.020520      0.015578     -0.062359
