# total energy = -225.95367196 eV
 
CRYSTAL
PRIMVEC
-0.032504 6.524939 6.155646 
6.387851 0.009523 6.115143 
4.255726 4.318656 0.008970 
PRIMCOORD
36 1
Li	      4.42754     10.59608      6.18610         0.017207     -0.033153     -0.023781
Li	      2.31230      8.47233      6.17401         0.000359     -0.003998      0.047353
Li	      4.24412      8.62109      8.01810        -0.045949     -0.014355      0.053565
Li	      6.21681      6.57408      4.14791        -0.054039      0.086369     -0.000817
Li	      6.33645      4.39185      6.13267        -0.041149      0.033967     -0.048657
Li	      4.21433      8.54033      4.30704         0.032355     -0.065117      0.021821
Li	      2.19731      6.48456      4.28934         0.056518     -0.087569     -0.044553
Li	      6.13543      8.84740      6.10677         0.082910     -0.027755     -0.075536
Li	      4.12921      6.72428      6.14040         0.017367     -0.030711     -0.039347
Sc	      4.20944      2.25905      6.08640        -0.122648      0.032315     -0.108172
Mn	      8.50192      4.29484      4.19638        -0.155151     -0.041598     -0.001862
V	      6.42769      8.61423     10.31272        -0.114148      0.351865      0.328289
V	      2.07953      4.22316      2.06219         0.071943     -0.064190      0.267760
V	      4.29762      4.34246      8.15787         0.019640      0.291245     -0.104064
Fe	      6.27252      6.59024      8.08779         0.114316     -0.220887     -0.007162
Co	      4.24932      4.45801      4.08855        -0.042361     -0.469903     -0.612378
Co	      6.36456      2.19618      8.15304         0.070397     -0.094087      0.231120
Cu	      2.10285      6.53116      8.07411         0.008060     -0.056693      0.169764
O	      2.12110      6.51285      6.22675         0.000041     -0.006356     -0.003328
O	      4.22949      8.69258      6.14751        -0.007082      0.024148      0.050655
O	      1.89688      2.31489      2.05527        -0.083516      0.127444     -0.063394
O	      4.13684      4.56331      2.04642        -0.035641      0.009107      1.036000
O	      4.38606      2.22081      4.04569        -0.060007      0.294342     -0.188976
O	      6.27003      4.11128      3.93374        -0.039459      0.255138     -0.055386
O	      6.33020      2.25439      6.10263         0.077230     -0.037848     -0.284552
O	      8.43353      4.44269      6.32210         0.076916      0.039827     -0.160275
O	      2.25345      4.33222      3.92519         0.329115      0.162296     -0.027177
O	      4.23880      6.37158      3.94046         0.069206     -0.467935      0.051442
O	      4.30769      4.31292      6.14374        -0.087009      0.086241     -0.348857
O	      6.43040      6.45166      6.20204        -0.028265      0.023811     -0.014330
O	      6.37499      4.25980      8.27016         0.039519     -0.093643      0.058050
O	      8.55575      6.49024      8.21191         0.005472      0.204309     -0.070020
O	      4.34401      6.41704      8.20800        -0.062937     -0.001982      0.023015
O	      6.52972      8.56396      8.25907        -0.059777     -0.061805     -0.031955
O	      6.35401      6.76929     10.16414        -0.060682     -0.148249     -0.042427
O	      8.37460      8.70343     10.19490         0.011247      0.005411      0.018171
