# total energy = -224.02948191 eV
 
CRYSTAL
PRIMVEC
0.025267 6.248600 6.338805 
6.286439 0.030815 6.334141 
4.194199 4.166526 0.016692 
PRIMCOORD
36 1
Li	      2.12178      8.28950      6.35641         0.004327      0.025777      0.084096
Li	      6.23055      4.21369      2.15830         0.001421      0.048770     -0.018720
Li	      4.19486      8.35373      8.41105        -0.066692     -0.045694     -0.036448
Li	      6.23698      6.23748      4.22622         0.005511     -0.031181     -0.046744
Li	      4.28885      4.19230      4.19252         0.043703     -0.017040     -0.020246
Li	      6.26019      4.16653      6.31190         0.011393     -0.007339      0.051024
Li	      2.14419      6.31970      4.28889        -0.024937      0.067010      0.005191
Li	      2.10148      4.19804      6.27174         0.015334     -0.004195      0.049313
Li	      8.42343      8.35634      8.49908         0.000264      0.019805     -0.022381
Sc	      8.28728      4.13708      4.23889         0.142240      0.005371      0.003587
Mn	      4.20620      2.16487      6.31358        -0.057330     -0.002353      0.117215
V	      2.11933      4.05684      2.23047        -0.041165      0.186555     -0.216962
V	      4.12293      6.20218      6.28147        -0.040290      0.123142      0.063647
V	      6.29604      6.38410      8.39315         0.004904      0.143784      0.092506
Fe	      0.14199      6.20487      6.39617        -0.082524     -0.075977     -0.153655
Cu	      6.31752      2.15882      4.24239         0.018941      0.020841     -0.034219
Ni	      4.22193      6.23691      2.19987        -0.263054      0.025150      0.053961
Ni	      4.18498      8.31551      4.25517         0.128647     -0.011614      0.023023
O	      2.03733      2.19479      2.12793         0.269686     -0.167721      0.018100
O	      4.11469      4.13833      2.05850         0.097030     -0.160126      0.129312
O	      4.25112      2.11387      4.41747        -0.086810     -0.006607     -0.142093
O	      6.30795      4.12190      4.20727        -0.151293      0.129610      0.023411
O	      6.19282      2.02651      6.48063        -0.028649      0.010736     -0.001024
O	      8.49014      4.15220      6.40994        -0.038581     -0.056674      0.000099
O	      2.10631      4.22853      4.00253         0.061272      0.058397      0.215609
O	      4.18915      6.29631      4.32466         0.012007     -0.129287     -0.003006
O	      4.19752      4.39862      6.35374         0.040752     -0.096814     -0.029231
O	      6.29048      6.26088      6.43372         0.121166      0.005502     -0.140702
O	      6.38457      4.29174      8.48743         0.024342     -0.047280     -0.130722
O	      8.33183      6.21364      8.28316         0.070445     -0.011698      0.077835
O	      2.13084      6.23593      6.37606         0.060268      0.032619     -0.021812
O	      4.24499      8.24148      6.30635         0.014376      0.014893      0.120147
O	      4.32403      6.27922      8.38935        -0.051577      0.000456     -0.002145
O	      6.33773      8.13910      8.40841         0.002985     -0.016902     -0.065550
O	      6.31366      6.29619     10.55713        -0.006761     -0.055789     -0.020168
O	      8.39260      8.36659     10.54457        -0.211353      0.025874     -0.022246
