# total energy = -229.04273223 eV
 
CRYSTAL
PRIMVEC
0.003844 6.126874 6.438360 
6.238483 0.000964 6.440488 
4.178378 4.105517 -0.018102 
PRIMCOORD
36 1
Li	      2.09117      2.02777      0.01998        -0.071213     -0.034527      0.012510
Li	      6.20826     10.20566      8.52152        -0.014944     -0.019500     -0.026403
Li	      8.27742      4.15775      4.42763        -0.005747      0.021448      0.037448
Li	      6.29483      6.06678      4.39496         0.003189      0.043223      0.027498
Li	      8.26399      6.14467      6.43886        -0.054351      0.018502     -0.000562
Li	      6.29260      4.22155      6.36726        -0.006492      0.073515      0.024468
Li	      2.09027      6.14330      4.33845        -0.001286     -0.030376      0.005716
Li	      4.21063      6.11201      6.44281         0.083634      0.061499      0.005393
Li	      6.28569      6.15509      8.49255        -0.023182      0.032853     -0.014181
Sc	      0.01872      4.15813      4.36126         0.116716      0.030354      0.049315
Mn	      4.17114      4.11267      4.36159        -0.120882      0.020421      0.024897
V	      4.15990      8.03096      8.56402         0.096882      0.015484     -0.124581
V	      0.07072      2.01529      2.07353         0.100135     -0.225200      0.076086
V	      4.14723      4.09567      8.54444        -0.241719      0.183695     -0.121029
Fe	      6.28142      2.02619      4.42781        -0.018930     -0.167639     -0.084296
Fe	      8.33732      4.12630      8.41703        -0.156062      0.104121      0.426472
Co	      6.29898      8.15096      6.44028        -0.440440      0.315571     -0.000063
Cu	      6.23539      6.13814     12.83548         0.127430     -0.136377      0.010477
O	      2.10666      2.06783      2.09655         0.176689      0.159163     -0.002184
O	      4.11809      3.98114      2.18444        -0.160482     -0.157162      0.148112
O	      4.22726      2.09417      4.14400        -0.076641      0.071435      0.133756
O	      6.10273      4.00501      4.37190         0.005235      0.149881     -0.004074
O	      6.30337      2.01846      6.48320         0.066122      0.223333     -0.306436
O	      8.41360      4.14106      6.52083        -0.204285     -0.040940     -0.304968
O	      2.15052      4.10260      4.22388         0.223566      0.019123     -0.097990
O	      4.21640      6.10122      4.07239        -0.060976     -0.121712      0.295160
O	      4.16869      4.15475      6.57523        -0.654172     -0.082040      0.190681
O	      6.25138      6.31810      6.41733         0.242600     -0.003881     -0.011417
O	      6.27498      4.09434      8.63103         0.170415     -0.026763     -0.050157
O	      8.47493      6.20052      8.52885         0.009575     -0.072357      0.008888
O	      1.95355      5.92865      6.40630         0.221642     -0.169756     -0.058474
O	      4.12868      8.13728      6.50042         0.431156     -0.065875      0.126091
O	      4.09192      6.23516      8.59102        -0.000702     -0.177134     -0.049249
O	      6.15644      8.17774      8.60880         0.180896     -0.002330     -0.135253
O	      6.24043      6.17948     10.64119         0.013701     -0.022904     -0.189456
O	      8.30810      8.22576     10.57706         0.042923      0.012851     -0.022197
