# total energy = -227.48003878 eV
 
CRYSTAL
PRIMVEC
0.017180 6.248044 6.297396 
6.339515 0.013383 6.300926 
4.234219 4.175510 0.001141 
PRIMCOORD
36 1
Li	      2.17706      6.24814      8.40762         0.013761     -0.042053     -0.007063
Li	      4.25197      6.21611     10.45111         0.061470     -0.024540     -0.006484
Li	      6.38523      8.33720     10.46280         0.002210     -0.043023      0.047353
Li	      6.33623      2.12552      8.42069        -0.050935      0.043532      0.016994
Li	      2.10755      2.09720      4.15359        -0.004973      0.073345     -0.058213
Li	      6.33157      4.16172      6.29930        -0.060904     -0.014450      0.022126
Li	      2.13146      6.24502      4.19732         0.003778     -0.027472      0.045154
Li	      4.20302      6.25605      6.31334        -0.057758     -0.038259     -0.042051
Li	      6.32907      6.27396      8.48969        -0.022406     -0.036558      0.095931
Sc	      0.03887      6.25059      6.30072         0.137050      0.057275     -0.144044
Mn	      8.39599      8.39835      8.44350         0.053089      0.103001      0.047313
V	      6.36447      4.11962     10.42541         0.024568     -0.133225      0.209032
V	      4.40471      4.27104      4.14149        -0.322089      0.096923      0.138733
V	      8.32136      6.26830      6.28546         0.098777      0.203352     -0.119232
Fe	      8.37153      2.04421      6.29709         0.001881      0.101339     -0.188428
Fe	      4.30616      8.20571      8.48096         0.149461      0.080276      0.038277
Cu	      8.44177      4.23443      8.43762        -0.075180     -0.011920     -0.098486
Ni	      2.14488      4.20407      6.28080        -0.018958      0.071699     -0.025628
O	      2.25439      2.19438      1.96229        -0.068790      0.052214      0.191628
O	      4.32397      4.09272      2.17508         0.117564     -0.025176     -0.057782
O	      4.25328      2.19027      4.21873         0.013210     -0.012746     -0.001270
O	      6.14726      4.21499      4.22233         0.349890     -0.005632     -0.013695
O	      6.29550      2.08530      6.29202         0.001556     -0.045581      0.057707
O	      8.44795      4.25395      6.38925        -0.038072     -0.107612     -0.038247
O	      2.17919      4.17830      4.15869         0.195053     -0.030792      0.024000
O	      4.25831      6.23726      4.18260         0.026056     -0.120870     -0.031142
O	      4.20599      4.10620      6.18410         0.137606     -0.052292     -0.046018
O	      6.55291      6.28075      6.24477        -0.057707     -0.136957     -0.016398
O	      6.18203      4.16726      8.56816        -0.195445      0.035748     -0.389691
O	      8.46415      6.30566      8.22343        -0.039080     -0.073809     -0.006810
O	      2.09691      6.31344      6.32825        -0.064882      0.048984      0.053244
O	      4.26669      8.30182      6.25470        -0.142273      0.034306      0.190808
O	      4.23081      6.29130      8.42566        -0.058120     -0.181108      0.009887
O	      6.32410      8.31974      8.34549         0.066532     -0.016276      0.093938
O	      6.37169      6.08646     10.58221        -0.052422      0.162893      0.049885
O	      8.52678      8.35854     10.63696        -0.123517      0.015462     -0.041329
