# total energy = -235.97915072 eV
 
CRYSTAL
PRIMVEC
-0.026961 6.411671 6.224093 
6.347773 0.004253 6.193473 
4.232068 4.254424 0.002366 
PRIMCOORD
36 1
Li	      2.12774      2.12005      0.03839         0.011982     -0.013821      0.025190
Li	      2.27459      6.33788      8.22638         0.021174     -0.035458     -0.070191
Li	      4.30773      8.32780      8.24478         0.048742     -0.069388     -0.006904
Li	      4.17358      6.43002     10.26223         0.000045      0.025226      0.051516
Li	      8.32504      6.34288      6.23051        -0.023494     -0.017085     -0.015930
Li	      6.41894      4.39848      6.20406         0.004577      0.057186     -0.016146
Li	      6.29269      8.40130      6.35793        -0.009048      0.001508      0.025450
Li	      4.27067      6.48918      6.36616        -0.011484      0.018577     -0.027462
Li	      6.16876      6.49230      8.12577         0.004070     -0.007768     -0.005036
Sc	      4.25543      4.21076      0.07953         0.027192     -0.035364      0.016779
Ti	      4.30175      4.14823      4.29346         0.253827     -0.162543      0.294627
Mn	      6.34982      2.17009      8.17769         0.010428      0.005632     -0.054350
Cr	      6.33630      6.38584      4.21405        -0.061684     -0.043644     -0.023737
Cr	      4.17886      4.37442      8.19899         0.032328      0.009691     -0.076242
Fe	      8.39016      4.28031      8.16231        -0.057714      0.056656      0.065779
Fe	     10.52299      8.59573     10.40821         0.012387     -0.022568     -0.102147
Fe	      2.10485      6.42816      4.23809         0.006820      0.009044     -0.089988
Co	      6.34541      2.15166      4.11385         0.002177     -0.030923      0.037642
O	      1.93925      2.23908      2.13471        -0.061703     -0.024165      0.008974
O	      4.09980      4.23846      2.17346        -0.024404      0.024175      0.137295
O	      4.15116      2.26125      4.13085         0.000012      0.163178      0.018368
O	      6.18548      4.34005      4.14162        -0.213123     -0.000226      0.000437
O	      6.35402      2.08263      6.20591         0.012844      0.066549     -0.008523
O	      8.49671      4.26086      6.27397        -0.005145      0.020592     -0.157865
O	      2.11908      4.25506      4.08661         0.036185      0.009115     -0.039087
O	      4.23607      6.35656      4.06675        -0.006404      0.008547     -0.052413
O	      4.19685      4.28290      6.13672         0.005191     -0.036134     -0.337140
O	      6.33283      6.40809      6.10965        -0.009531     -0.014474     -0.044757
O	      6.33973      4.32551      8.35452        -0.005467     -0.011602     -0.018094
O	      8.60811      6.41956      8.32511         0.058695     -0.004772      0.021684
O	      2.07257      6.42690      6.11573        -0.015321     -0.010031      0.192568
O	      4.19723      8.55352      6.11097         0.010511      0.000852      0.142612
O	      4.20406      6.30997      8.30467         0.012487     -0.015363      0.006124
O	      6.44286      8.53876      8.35124        -0.044768     -0.013319      0.034303
O	      6.42812      6.35551     10.36552         0.031695      0.057029      0.003065
O	      8.51863      8.45373     10.22953        -0.054076      0.035090      0.063601
