# total energy = -240.35725984 eV
 
CRYSTAL
PRIMVEC
-0.031519 6.349636 6.242974 
6.386552 -0.040559 6.252097 
4.222431 4.203986 0.008198 
PRIMCOORD
36 1
Li	      4.23864      4.16822      0.13211         0.008415     -0.023062      0.019176
Li	      4.16276      2.19142      2.07516        -0.021311      0.017006      0.015328
Li	      4.23883      6.21150      2.15583        -0.009247      0.031580      0.059394
Li	      2.26613      4.16335      2.15766         0.056225     -0.025483      0.047607
Li	      2.11222      2.17817      4.06513         0.003108      0.044904      0.012078
Li	      4.05964      4.30957      4.06185        -0.052963      0.052584      0.067590
Li	      2.19182      6.22571      4.10489         0.011620     -0.013862     -0.060863
Li	      4.25318      4.21737      8.31409         0.012329     -0.026740     -0.019947
Li	      6.33025      6.29148      8.32257         0.007865     -0.028614     -0.027436
Sc	      6.44006      4.16050     10.27489         0.082072      0.026057     -0.025593
Ti	      8.44444      6.30265      6.42499        -0.047939      0.022951      0.676507
Mn	      4.24700      6.34150     10.30535         0.060150     -0.042808     -0.002822
Mn	      4.19657      6.32764      6.26686        -0.012779      0.033035     -0.050259
Cr	      2.10851      2.12984      0.07263         0.019883     -0.016072     -0.008160
Cr	      6.37626      4.17620      6.32113        -0.064777      0.078283      0.025584
Fe	      6.18605      4.26572      2.11116         0.194611     -0.051527      0.014607
Fe	      6.32614      8.35478     10.29128         0.110656      0.007805     -0.001504
Fe	      6.32854      8.43276      6.27277        -0.064619      0.022878      0.070626
O	      2.10414      2.04228      2.03444         0.000050      0.055631      0.000829
O	      4.31007      4.20067      2.13672        -0.192212      0.005296      0.010522
O	      4.35764      1.92785      4.26064        -0.068428      0.000164      0.048438
O	      6.52074      4.11451      4.19240         0.028491      0.008296      0.072028
O	      6.35760      2.15280      6.17616        -0.016719     -0.003803      0.006626
O	      8.40240      4.20191      6.31818         0.004025      0.007179     -0.037111
O	      2.05887      4.24815      4.27807        -0.044400     -0.049443     -0.209250
O	      4.21036      6.35847      4.33146         0.007774      0.019340      0.029536
O	      4.34119      4.08166      6.21332         0.075038     -0.084142      0.000180
O	      6.47223      6.21310      6.26986         0.109473     -0.098222     -0.010398
O	      6.33415      4.17188      8.27951        -0.038124      0.031876     -0.060915
O	      8.50430      6.29215      8.22631        -0.000551     -0.006865     -0.666694
O	      2.07770      6.46477      6.28648         0.019782      0.058346     -0.013419
O	      4.07929      8.43455      6.21632        -0.095711     -0.036754     -0.024025
O	      4.14672      6.31180      8.19295        -0.029208     -0.000912     -0.033059
O	      6.34421      8.50145      8.33020         0.014897      0.020752      0.056246
O	      6.21747      6.35610     10.35668        -0.068884     -0.052822     -0.005989
O	      8.41790      8.54614     10.48573         0.001409      0.017167      0.024545
