# total energy = -235.24909842 eV
 
CRYSTAL
PRIMVEC
0.002653 6.258240 6.366737 
6.203271 0.004834 6.364408 
4.142704 4.177601 -0.003873 
PRIMCOORD
36 1
Li	      2.07307      8.28286      6.31472         0.005388     -0.004698     -0.081164
Li	      2.04588      6.25799      8.41481        -0.021184     -0.034365     -0.055957
Li	      6.16119      2.14070      4.19498        -0.046156      0.039570     -0.036583
Li	      8.28618      4.21401      8.48048         0.056138     -0.000937      0.001804
Li	      4.13047      4.12898      4.37354         0.003114     -0.032982      0.077487
Li	      2.09757      6.25168      4.30679         0.035665      0.040271     -0.003366
Li	      2.08747      4.23386      6.33246        -0.006754     -0.024737     -0.002411
Li	      4.09834      6.20284      6.37546        -0.011861      0.022555     -0.030701
Li	      6.18833      6.31771      8.38831        -0.021700      0.041756     -0.116519
Sc	      8.15340      8.40341      8.47573        -0.135608      0.007386      0.007892
Ti	      6.25586      4.23734     10.57679         0.079072      0.092827      0.040187
Mn	      0.07138      6.22946      6.34936        -0.169760      0.011564      0.096962
Mn	      4.16249      8.29928      8.47354        -0.058663      0.058597     -0.036226
Mn	      4.17275      6.19475      2.15464         0.034149     -0.093424     -0.014698
Cr	      6.20941      6.25027      4.27374         0.065393     -0.085588      0.059366
Cr	      6.24802      4.19755      6.37265         0.107007     -0.030230      0.003974
Ni	      4.12362      0.02315      4.24452        -0.018043     -0.022982      0.004957
Ni	      4.13265      2.10421      6.36898         0.006216     -0.007661     -0.016238
O	      2.01299      2.04765      2.25173         0.048669     -0.023490     -0.014266
O	      4.13224      4.00908      1.92143         0.010795     -0.011890     -0.065106
O	      4.06023      2.09032      4.24896         0.007244      0.123210     -0.030950
O	      6.22333      4.22378      4.39903        -0.152996      0.005574      0.051053
O	      6.21968      2.01416      6.51503         0.137178      0.008118      0.040525
O	      8.32542      4.21530      6.31774         0.053031     -0.125463      0.112282
O	      1.95440      4.09622      4.24822        -0.111847      0.074439     -0.006996
O	      4.17981      6.35235      4.15227        -0.045544      0.057489      0.038248
O	      4.24841      4.16911      6.40615        -0.032435      0.136700      0.005583
O	      6.23105      6.16630      6.28889        -0.143147      0.024040      0.041486
O	      6.21377      4.25954      8.53715         0.015806      0.026712      0.033000
O	      8.44392      6.29858      8.46477        -0.018007     -0.013673      0.135859
O	      1.89657      6.26458      6.34241         0.087421     -0.012728     -0.023874
O	      4.11843      8.48055      6.23610         0.019107      0.001100     -0.110521
O	      4.11599      6.36282      8.49766         0.001824     -0.033439     -0.108511
O	      6.15827      8.31122      8.49513        -0.042277      0.012245     -0.022486
O	      6.21511      6.20280     10.75777         0.149827     -0.096704      0.030941
O	      8.41296      8.38472     10.54712         0.112941     -0.129159     -0.005033
