# total energy = -246.92277997 eV
 
CRYSTAL
PRIMVEC
0.003308 6.393698 6.398929 
6.285924 0.017288 6.384798 
4.196198 4.258605 0.006097 
PRIMCOORD
36 1
Li	      8.33401      2.25680      6.31838        -0.011423      0.019170     -0.060825
Li	      4.18419      8.44574      8.55966        -0.026266     -0.009634      0.051759
Li	      8.41965     10.65174     10.68307         0.028495      0.002813      0.017165
Li	      6.37037      8.45244     10.70678         0.015329     -0.004751      0.061869
Li	      8.30839      4.36683      8.36483         0.013688      0.025634     -0.005590
Li	      8.33068      6.27209      6.45339         0.017769     -0.026025      0.013016
Li	      6.47001      4.33279      6.41261         0.070073      0.019444      0.008302
Li	      8.37173      8.57052      8.58539        -0.007266      0.019793      0.034537
Li	      6.32509      6.34836      8.52873         0.008342     -0.020581     -0.015246
Sc	      6.24525      2.23083      8.38906        -0.024029      0.064790     -0.124779
Ti	      4.26371      4.11760      4.31136         0.170265     -0.322404      0.035352
Mn	      2.17040      6.39135      8.53451        -0.005580      0.002893      0.043748
V	     10.37671      4.30720      6.37858        -0.037381     -0.028199      0.081950
V	      6.19631      4.32478     10.57502         0.069979      0.039468      0.005514
V	      6.29335      8.49906      6.49364        -0.026087      0.026469     -0.060224
Cr	      6.29085      6.38218      4.30078         0.022660     -0.011268     -0.059617
Cr	      8.33560      6.45227     10.61147        -0.030410      0.021034     -0.026885
Co	      4.21155      6.39647      6.50793         0.072047      0.009898     -0.015869
O	      2.08305      2.00079      2.28576         0.028371     -0.038211      0.030650
O	      4.29443      4.29185      2.23433         0.028448     -0.019160      0.046752
O	      4.10291      2.27878      4.25935         0.037539      0.202214      0.028540
O	      6.14816      4.35913      4.34858        -0.125631     -0.009612     -0.007157
O	      6.29395      2.03253      6.40183         0.013849      0.136800     -0.072392
O	      8.47910      4.24074      6.39358        -0.158032      0.012461     -0.041798
O	      2.12397      4.22630      4.31344         0.052089     -0.006270      0.007950
O	      4.19629      6.37339      4.26287         0.027952     -0.084953      0.054633
O	      4.08795      4.31941      6.20024         0.019286      0.018597     -0.037292
O	      6.27665      6.45354      6.29620        -0.097092     -0.032401      0.067471
O	      6.33236      4.26226      8.62479        -0.054461      0.025669     -0.184433
O	      8.41853      6.40770      8.64353        -0.061020     -0.006792     -0.057056
O	      2.03763      6.35241      6.28259         0.126670     -0.020828      0.027132
O	      4.29432      8.59892      6.25568        -0.029850     -0.132360      0.110062
O	      4.08206      6.41929      8.51150         0.020899      0.012456      0.013215
O	      6.30480      8.68306      8.39683         0.003626      0.021215      0.167485
O	      6.35679      6.37091     10.68777         0.017497      0.091761     -0.096566
O	      8.48233      8.41608     10.66527        -0.170343      0.000868     -0.041373
