# total energy = -92.77849537 eV
 
CRYSTAL
PRIMVEC
-4.029760 0.000125 0.000008 
2.015058 -4.294394 -6.107812 
-2.014695 -4.298076 2.038028 
PRIMCOORD
16 1
Li	     -1.00728     -5.38928     -5.06377        -0.002431     -0.000305     -0.006888
Li	     -1.00713     -5.42097     -1.03385         0.000433     -0.037598      0.012179
Li	     -5.03705     -3.20409      0.99663         0.001782      0.000263      0.007914
Li	     -1.00748     -3.17232     -3.03360         0.000591      0.037794     -0.012925
Mn	     -1.00745     -1.03568     -1.04051        -0.000626     -0.002629     -0.000874
Mn	     -1.00712     -7.55785     -3.02665        -0.000677      0.006197     -0.002696
Ni	     -3.02210     -5.38746     -3.02431        -0.001336     -0.024377     -0.003680
Ni	     -3.02236     -3.20584     -1.04297         0.002011      0.023554      0.003414
O	     -3.02234     -3.37809     -3.14349         0.000610      0.125284     -0.109182
O	     -3.02229     -3.38715      1.10368         0.004270     -0.000486      0.083281
O	     -3.02233     -1.16981     -1.02226         0.000155      0.131561      0.000318
O	     -1.00713     -5.63555     -3.04354        -0.001779     -0.029644     -0.010934
O	     -3.02189     -7.42370     -3.04490        -0.001956     -0.129741     -0.002445
O	     -1.00749     -2.95731     -1.02383         0.001283      0.021395      0.013003
O	      1.00752     -5.20655     -5.17085        -0.002225      0.003402     -0.084827
O	     -3.02207     -5.21523     -0.92412        -0.000106     -0.124672      0.114341
