# total energy = -247.73989314 eV
 
CRYSTAL
PRIMVEC
0.010272 6.449697 6.333086 
6.375826 0.038903 6.305361 
4.279579 4.310064 -0.003200 
PRIMCOORD
36 1
Li	      8.52808      2.26496      6.30919         0.037897      0.023976      0.010012
Li	      8.53816     10.74261     10.57349         0.011964      0.012206     -0.019146
Li	      8.48349      4.38853      8.43866         0.027738      0.034823      0.001658
Li	      2.11255      2.17088      4.18874        -0.044734      0.038748     -0.012196
Li	      6.46648      4.36251      6.27507         0.022552      0.028904     -0.055752
Li	      6.34705      4.38005     10.47558        -0.006859      0.014459      0.052164
Li	      8.50764      6.49125     10.40738        -0.002055     -0.038787     -0.038221
Li	      4.31794      4.30220      8.45796         0.038709     -0.029599     -0.028519
Li	      6.41672      6.38968      8.48498        -0.057138     -0.010789      0.007302
Sc	      2.15059      4.28602      6.27782        -0.085387      0.073608     -0.028340
Ti	      6.58995      8.58332     10.54152         0.320719     -0.257800     -0.010124
Mn	     10.60352     10.76860     12.54708         0.032747     -0.063888     -0.015690
Mn	      4.30649      6.44401      6.28480         0.006644      0.022481      0.025070
V	      4.20229      2.13858      2.15928         0.007599      0.009170     -0.026402
V	      6.38356      2.39406      8.41334         0.025929      0.008601      0.011138
V	      4.22681      4.32542      4.19434        -0.044523      0.000306      0.010074
Cr	      6.41099      4.34282      2.12480         0.002362     -0.025311     -0.083847
Fe	      8.46197      6.36385      6.35808        -0.003115      0.122599     -0.044175
O	      2.05699      2.05134      2.11100        -0.063696     -0.039457     -0.015028
O	      4.35496      4.29184      2.11373         0.030002     -0.027618      0.093940
O	      4.29671      2.27284      4.20042        -0.006259      0.015316      0.033153
O	      6.27660      4.19335      4.13957         0.005552     -0.070079     -0.004091
O	      6.31479      2.21556      6.29177         0.052324      0.032262     -0.027329
O	      8.48665      4.45536      6.28563        -0.005511     -0.125542     -0.026015
O	      2.21968      4.30924      4.25018         0.002850     -0.047221      0.003509
O	      4.28193      6.34174      4.06490         0.019668     -0.002599     -0.038634
O	      4.23622      4.24728      6.29483        -0.007053     -0.072729      0.025739
O	      6.47146      6.50394      6.38905        -0.020765     -0.003417      0.032144
O	      6.42177      4.14351      8.46767         0.006315      0.027556     -0.006403
O	      8.73905      6.47099      8.33412         0.030750      0.029775      0.078606
O	      2.15364      6.39125      6.44198        -0.043036     -0.014049      0.066763
O	      4.29989      8.60669      6.44641        -0.023823     -0.027269     -0.034333
O	      4.14447      6.62282      8.48849        -0.022452     -0.012171      0.031265
O	      6.35461      8.72536      8.52441         0.010881      0.061228      0.113069
O	      6.40861      6.68668     10.45453         0.034563      0.301431     -0.053395
O	      8.39760      8.66847     10.54135        -0.291358      0.010876     -0.027966
