# total energy = -248.54163195 eV
 
CRYSTAL
PRIMVEC
0.009622 6.301521 6.288318 
6.390814 0.021225 6.276426 
4.265963 4.198498 0.008842 
PRIMCOORD
36 1
Li	      6.37289      4.21133      2.15809        -0.043513      0.003141      0.012700
Li	      6.39885      8.40061     10.46505         0.004351      0.030303     -0.013941
Li	     10.57074      6.29107      8.42653        -0.033723     -0.041587      0.008300
Li	      8.49267      4.33928      8.45075         0.021448     -0.025534      0.001729
Li	      4.24073      4.21807      4.11248        -0.001945     -0.013597     -0.061744
Li	      6.46248      4.22916     10.38869        -0.003450     -0.023981     -0.028309
Li	      8.51230      6.25187     10.37972        -0.032338      0.004214     -0.025064
Li	      4.23596      6.29933      6.29467         0.017536      0.001949     -0.022273
Li	      6.45970      6.27858      8.48165        -0.005964      0.033672      0.046532
Sc	      8.52750      8.43768      8.51792        -0.015683     -0.020360     -0.012554
Ti	      0.09586      6.30705      6.26738         0.154556     -0.040536      0.239222
V	      4.32250      8.38059      8.42381         0.041736      0.197823     -0.055817
V	      6.27092      6.34119      4.10872         0.123901      0.010769     -0.126979
V	      6.38022      4.21577      6.32533        -0.047981     -0.035296      0.036052
Cr	      2.18073      8.35745      6.28415         0.031519     -0.055264      0.108145
Cr	      8.52776      6.30643      6.31705        -0.019807      0.027565     -0.043956
Cr	      2.15706      4.20999      6.24712         0.028352     -0.003044      0.022125
Fe	      4.27849      6.30605     10.43722         0.039937     -0.219866     -0.103733
O	      2.26965      2.08773      2.11445        -0.027224      0.011368      0.055179
O	      4.28179      4.13009      1.95684        -0.015146      0.014123     -0.164187
O	      4.11480      2.12503      4.22478         0.027752      0.279396      0.150263
O	      6.46293      4.30263      4.28754        -0.297312      0.015592      0.041926
O	      6.29415      2.13302      6.28425        -0.142973     -0.056761     -0.012391
O	      8.54227      4.26488      6.34328         0.009338      0.033123      0.083986
O	      2.14248      4.09974      4.25475         0.033880      0.041517      0.007651
O	      4.51030      6.27949      4.17721        -0.156488     -0.028918      0.001941
O	      4.22412      4.13473      6.30902        -0.031316      0.022962     -0.035381
O	      6.48294      6.31459      6.17567         0.029775      0.036646      0.027803
O	      6.33118      4.26044      8.26723        -0.005945     -0.013177      0.049366
O	      8.51156      6.36775      8.30666        -0.025823     -0.002981      0.027304
O	      2.03027      6.23898      6.24036        -0.132375     -0.012959     -0.053396
O	      4.38485      8.50148      6.32440         0.144167      0.045916     -0.088147
O	      4.27013      6.37582      8.32248        -0.006112     -0.140206     -0.052121
O	      6.34555      8.41579      8.30705         0.134821     -0.006577     -0.025268
O	      6.31023      6.32684     10.65644         0.245275      0.050901      0.087842
O	      8.54168      8.36539     10.54331        -0.043226     -0.120336     -0.082806
