# total energy = -242.20306764 eV
 
CRYSTAL
PRIMVEC
0.023795 6.272988 6.313133 
6.496330 0.009344 6.328772 
4.328934 4.191114 0.007567 
PRIMCOORD
36 1
Li	      6.48904      6.32098     12.40742        -0.034951      0.022907      0.018870
Li	      4.61248      6.26869     10.55406         0.059521     -0.031354      0.062955
Li	      6.56904      8.16460     10.62413         0.020017      0.035390      0.023696
Li	      8.52888      4.30271      8.49336        -0.132210     -0.014857      0.013256
Li	      4.30822      4.16747      4.23918        -0.014334     -0.032216     -0.035883
Li	      6.54554      4.16069      6.33760         0.045567     -0.007520      0.044170
Li	      6.53065      4.42583     10.49428        -0.099652     -0.044278      0.004317
Li	      8.36843      6.26227     10.53484         0.011667      0.082762     -0.042563
Li	      6.59782      6.18665      8.65293         0.000316      0.024437     -0.085731
Sc	     10.76466      6.30200      8.46630         0.051053      0.010589      0.022077
Ti	      6.45961      4.10889      2.26311        -0.314856      0.005801     -0.069580
V	      8.64628      2.20049      6.22485        -0.114434     -0.063778     -0.047516
V	      2.21639      2.11930      4.19189        -0.111990      0.483768      0.132174
V	      8.69494      6.18757      6.28373        -0.110799      0.116537      0.218587
V	      4.36543      6.24263      6.23102         0.135644      0.105663     -0.064623
Fe	      4.35261      2.09130      2.18570         0.154987      0.027142     -0.012532
Fe	      2.13555      4.25915      6.19263         0.031186     -0.225114      0.300831
Fe	      8.74577      8.38960      8.60945         0.008840     -0.075673     -0.077317
O	      2.13322      2.02467      2.10910         0.011919     -0.209428     -0.663733
O	      4.51962      4.14800      2.12536         0.302842      0.186137      0.013383
O	      4.23022      2.12073      4.31105        -0.083109     -0.165805     -0.200068
O	      6.51894      4.22019      4.08032         0.039609      0.360831      0.040270
O	      6.53728      2.11943      6.38547        -0.134665     -0.052896     -0.162355
O	      8.64649      4.19228      6.37545         0.056658      0.012940      0.051817
O	      2.20020      4.18429      4.27734        -0.018605     -0.613108     -0.270556
O	      4.51265      6.23133      4.25282         0.013466     -0.161840      0.061948
O	      4.23123      4.18972      6.38986         0.057530     -0.010076     -0.056481
O	      6.51639      6.36011      6.21933         0.062661     -0.015939      0.534386
O	      6.35736      4.15455      8.43985         0.102838      0.012837      0.004792
O	      8.69619      6.34947      8.33106         0.057127     -0.044982      0.086193
O	      2.25600      6.32733      6.36497         0.120289      0.027276      0.063062
O	      4.35445      8.24644      6.33721         0.082066      0.212203     -0.068741
O	      4.21577      6.26024      8.31122        -0.183873     -0.184031      0.104871
O	      6.57851      8.48500      8.31979         0.058153      0.204106     -0.027496
O	      6.49926      6.30243     10.51509        -0.007077      0.007955      0.015601
O	      8.67248      8.37753     10.54128        -0.123401      0.013614      0.067921
