# total energy = -248.22024832 eV
 
CRYSTAL
PRIMVEC
0.016081 6.353289 6.273972 
6.346623 0.013600 6.276734 
4.231246 4.237566 0.008902 
PRIMCOORD
36 1
Li	      4.36374      8.37244      8.40069         0.047263     -0.041427     -0.041685
Li	      4.33158      6.39264     10.42531        -0.017779     -0.005633     -0.013833
Li	      2.16329      2.14738      4.22735         0.021412     -0.013468     -0.030266
Li	      4.21291      4.21335      4.22515        -0.002060     -0.005868      0.005929
Li	      6.34292      4.22641      6.11953        -0.020706      0.023595     -0.004168
Li	      6.44452      4.40049     10.45754        -0.029986      0.037389      0.006725
Li	      1.98973      6.25305      4.22755         0.011930      0.003803     -0.002674
Li	      2.12434      4.21054      6.14718        -0.006596      0.015566     -0.050384
Li	      6.25991      6.45895      8.51184        -0.005650      0.015826     -0.050532
Sc	      6.35171      4.19411      2.22521         0.045765      0.052733     -0.063542
Ti	      4.21081      6.39901      2.27891         0.064714      0.121923      0.303347
Ti	      8.31020      6.38192      6.17249        -0.211561     -0.012134     -0.243304
Mn	      6.40793      6.28024     12.41981        -0.002089     -0.095785      0.094191
V	      8.45575      8.51114     12.42618         0.083869      0.057371      0.070662
V	      2.10925      4.24877      2.22220        -0.078787     -0.079202     -0.047859
V	      4.30255      6.37858      6.20369         0.049516     -0.128292     -0.058033
V	      8.47298      8.48329      8.45084         0.086834      0.078804      0.029225
Ni	      6.32502      2.10888      4.19112         0.000333     -0.011173      0.038439
O	      1.98022      2.14928      1.98833        -0.071774     -0.019388      0.073994
O	      4.18884      4.35490      2.10120        -0.001341      0.042078      0.057408
O	      4.25088      2.12514      4.33779        -0.128349      0.026159      0.235843
O	      6.35558      4.19928      4.16597        -0.014710      0.114810      0.028603
O	      6.31524      2.13724      6.35974        -0.073297      0.107554      0.136330
O	      8.43893      4.31606      6.40037        -0.119434      0.101068     -0.002445
O	      2.12019      4.23410      4.09348         0.027714     -0.031853      0.096362
O	      4.26208      6.31477      4.14573        -0.020499      0.001993     -0.285464
O	      4.24750      4.17866      6.38801        -0.016378     -0.092250     -0.067516
O	      6.45182      6.36755      6.26957         0.244405      0.001323      0.028416
O	      6.34341      4.11076      8.41533         0.032887     -0.143739     -0.007062
O	      8.59352      6.37564      8.30954         0.021677      0.003934      0.004856
O	      2.21374      6.48750      6.27193         0.070861     -0.121387      0.015040
O	      4.16596      8.34416      6.27636         0.033954      0.062477      0.007643
O	      4.23465      6.29923      8.23007         0.004632      0.021059      0.083399
O	      6.45169      8.50691      8.37745        -0.110856     -0.039735     -0.117612
O	      6.35046      6.42273     10.41675        -0.008592     -0.048235     -0.091331
O	      8.44766      8.52962     10.46226         0.092675      0.000105     -0.138701
