# total energy = -253.62855223 eV
 
CRYSTAL
PRIMVEC
0.036805 6.401518 6.430515 
6.423205 0.019924 6.447496 
4.276924 4.273865 0.018572 
PRIMCOORD
36 1
Li	      6.44232      6.46004     12.63791        -0.026329     -0.006380      0.111412
Li	      8.62210      8.49521     12.65350         0.001490      0.001212     -0.086841
Li	      2.21021      6.37062      8.51988         0.025845      0.011121     -0.032130
Li	      4.56586      6.31916     10.76179        -0.080065      0.038372     -0.014684
Li	      6.54138      8.28327     10.77428        -0.022070      0.047431      0.012361
Li	      8.62456      6.34414      6.46688        -0.012032     -0.068773      0.016863
Li	      6.29994      4.54562     10.78548        -0.009616     -0.034364      0.040702
Li	      8.32436      6.58931     10.76954         0.056226     -0.006563     -0.000981
Li	      6.46284      6.43310      8.89504        -0.013234      0.028003     -0.023796
Sc	      2.12302      4.37821      6.42509        -0.044361      0.100364     -0.033296
Ti	      2.19567      2.09448      4.28755         0.030113     -0.057670     -0.042088
Ti	      6.50706      4.14459      6.41330         0.246355     -0.437843      0.045670
Mn	      4.27827      6.33983      2.14176        -0.087442      0.071736      0.025657
V	      4.34841      8.52703      8.62546         0.056300      0.020094     -0.057292
V	      8.50255      4.39595      8.61546         0.032009      0.046571     -0.024166
V	      4.34363      4.20446      4.32629        -0.030087     -0.023288     -0.023782
V	      4.26063      6.47008      6.46830         0.000753      0.021203     -0.080658
V	      8.53547      8.55806      8.74196         0.104251     -0.138283      0.130234
O	      2.16928      2.24140      2.30094         0.054107     -0.009958      0.199868
O	      4.19945      4.17816      2.21466         0.010798     -0.031544     -0.030548
O	      4.17371      2.10085      4.24279        -0.169845     -0.056056     -0.037408
O	      6.44525      4.40782      4.43053         0.042107      0.127231      0.132742
O	      6.41299      2.30951      6.39658        -0.011433      0.381499      0.008847
O	      8.39163      4.30288      6.60298        -0.283870     -0.015937      0.015263
O	      2.20038      4.13889      4.25316        -0.033366     -0.128712      0.025251
O	      4.47036      6.33427      4.39072         0.164055      0.006881      0.034246
O	      4.34232      4.33001      6.48623         0.041147      0.020464      0.097710
O	      6.37333      6.42739      6.28673         0.053503     -0.005459     -0.136191
O	      6.35450      4.31424      8.41615        -0.039230      0.063128     -0.122733
O	      8.58742      6.36289      8.61712        -0.127756      0.051694      0.034298
O	      2.29158      6.40622      6.40639         0.032138     -0.056783     -0.008278
O	      4.34655      8.53571      6.57830         0.035640     -0.026302     -0.009515
O	      4.31339      6.45933      8.45562        -0.033177      0.006742      0.009509
O	      6.49347      8.57240      8.51668         0.072745      0.019698     -0.040633
O	      6.44567      6.40480     10.78094        -0.014055      0.009533      0.014341
O	      8.60668      8.56917     10.61117        -0.021614      0.030935     -0.149952
