# total energy = -248.43910528 eV
 
CRYSTAL
PRIMVEC
-0.002237 6.350072 6.274840 
6.367874 -0.012751 6.284977 
4.243097 4.238101 -0.006320 
PRIMCOORD
36 1
Li	      6.23098      4.25310      2.16163        -0.060528      0.021270      0.036396
Li	      4.21955      2.26056      2.16191        -0.034771      0.077319      0.045221
Li	      4.18586      6.27491      2.15247        -0.013243      0.013229      0.021145
Li	      2.09062      2.11651      4.15306        -0.006646     -0.021915     -0.000548
Li	      4.23394      4.27310      4.07238        -0.003860      0.043296     -0.001797
Li	      8.47250      6.33215      6.32852         0.008961      0.002692     -0.027012
Li	      6.31988      4.31051      6.30296        -0.042518      0.059464     -0.022390
Li	      2.19149      6.27566      4.06701         0.042783     -0.025925     -0.037553
Li	      6.45876      6.30281      8.31781         0.029862     -0.031565     -0.023437
Sc	      2.18751      4.17730      6.25962         0.098985     -0.093389      0.039147
Ti	      2.08489      2.10679      0.13941        -0.179164      0.004348      0.482156
Ti	      4.13989      0.10325      4.06320        -0.290270      0.387447     -0.117804
V	      0.03895      4.20097      4.11729         0.113118     -0.022879     -0.027629
V	      4.28120      6.33671      6.27558         0.078710     -0.089570      0.066574
V	      8.53422      8.32603      8.35399         0.087004     -0.053105     -0.070383
Cr	      4.24691      4.25142      0.05387        -0.008087      0.076497      0.014021
Cr	      6.33767      8.47288     10.41040        -0.047969      0.004725      0.018274
Ni	      8.51114      4.31135      8.40042        -0.038719      0.036079     -0.035281
O	      2.11611      2.18319      1.96367        -0.003648     -0.080265     -0.432660
O	      4.20297      4.25268      2.00955         0.048610      0.006371     -0.036132
O	      4.29423      1.96975      4.16308        -0.003670     -0.373474     -0.022203
O	      6.51094      4.19543      4.18714         0.353368     -0.000396     -0.025087
O	      6.47902      2.00629      6.17992         0.159948     -0.055654     -0.009830
O	      8.56947      4.14405      6.21246         0.065017     -0.119951     -0.134673
O	      2.07833      4.24959      4.18349        -0.086806     -0.017922      0.112389
O	      4.21151      6.45794      4.32397        -0.014855      0.035416      0.000065
O	      4.23508      4.26656      6.29629        -0.060161      0.024191     -0.048715
O	      6.24109      6.38599      6.30018        -0.026148      0.063905     -0.042874
O	      6.33148      4.21874      8.43520        -0.065761     -0.021907     -0.028999
O	      8.49385      6.38650      8.35415         0.003775      0.061813     -0.018920
O	      2.10869      6.41101      6.30973        -0.014952      0.058143      0.019462
O	      4.20833      8.50758      6.25438        -0.045871      0.046225      0.022303
O	      4.24641      6.24663      8.40782        -0.007453     -0.044812      0.170496
O	      6.48632      8.45920      8.39404         0.021052      0.008742     -0.033391
O	      6.25476      6.25437     10.56615        -0.082337     -0.027521      0.079449
O	      8.51293      8.52050     10.50741         0.026240      0.049079      0.070221
