# total energy = -244.47988899 eV
 
CRYSTAL
PRIMVEC
0.035585 6.373787 6.313838 
6.227632 0.009398 6.340147 
4.175457 4.290727 -0.017408 
PRIMCOORD
36 1
Li	      6.20354      0.22654      6.35719         0.013387      0.080204      0.005381
Li	      6.20947      4.37731      2.21357        -0.025502      0.006932      0.008264
Li	      4.12113      2.15239      2.22462         0.022383      0.002576      0.040942
Li	      6.18474      2.22985      4.37358         0.027106      0.043104      0.019518
Li	      6.28337      2.05709      8.27144         0.000843     -0.060441     -0.053656
Li	      6.31815      6.28918      4.15606        -0.024117     -0.007833      0.069702
Li	      4.37307      2.08354      6.22401         0.062431      0.012096     -0.021459
Li	      6.29255      4.13911      6.23226         0.007209     -0.000921     -0.035591
Li	      6.24180      4.27612     10.53314         0.002570      0.015851     -0.009111
Sc	      6.15944      8.51329      6.29348        -0.069050     -0.081886      0.043612
Ti	      2.16503      4.09022      1.94461         0.140541     -0.198957     -0.202481
Ti	      8.28849      6.50375     10.54231        -0.124428      0.137939     -0.076254
V	      4.26917      4.16930      4.19957         0.115497     -0.053495      0.020616
V	      4.13983      6.41762      6.33364         0.148439     -0.074296      0.089596
V	      4.24564      4.23150      8.41704         0.088145      0.081379     -0.028580
V	      6.29367      6.39998      8.44718        -0.140443     -0.064275     -0.042763
Co	      8.26430      2.16693      6.34931         0.013114      0.035542     -0.011828
Ni	      4.07860      0.14043      4.27315         0.064293     -0.038291      0.035701
O	      2.05649      2.26848      2.13524         0.006926      0.271841      0.032196
O	      4.04780      4.24584      2.13117        -0.231700     -0.027619     -0.025716
O	      4.15224      2.20983      4.23577        -0.018134     -0.019371      0.019182
O	      6.21376      4.31617      4.18857        -0.071206      0.004532     -0.034502
O	      6.35844      2.17194      6.33171        -0.142497      0.002988      0.008436
O	      8.35200      4.30041      6.38519         0.050491     -0.111232      0.269715
O	      2.13807      4.39121      4.15549        -0.063925      0.065489     -0.013893
O	      4.05323      6.28419      4.32148        -0.150565      0.083723      0.016943
O	      4.15448      4.34547      6.38374        -0.073709      0.009488     -0.064403
O	      6.19623      6.46979      6.43436        -0.020022      0.064635     -0.040809
O	      6.29243      4.38592      8.45882         0.088497     -0.038259     -0.057232
O	      8.37315      6.38227      8.54481        -0.009557      0.044175      0.080951
O	      2.04740      6.35362      6.19652        -0.042479      0.074588     -0.120959
O	      4.10091      8.38990      6.28863         0.092914     -0.000181      0.000310
O	      4.20841      6.32288      8.40763        -0.025655     -0.024830     -0.013385
O	      6.40653      8.42560      8.34892         0.004508      0.012516      0.018409
O	      6.31205      6.41007     10.47061         0.276387     -0.009454      0.024356
O	      8.38587      8.45404     10.41849         0.007310     -0.238255      0.048791
