# total energy = -247.56887307 eV
 
CRYSTAL
PRIMVEC
-0.019110 6.319859 6.331705 
6.280881 -0.008164 6.320766 
4.164771 4.183552 0.017061 
PRIMCOORD
36 1
Li	      0.02722      6.27033      6.24039         0.029363      0.014966      0.045582
Li	      8.41895      8.37072     12.54138         0.023351     -0.045361      0.001067
Li	      2.10372      6.29729      8.42507         0.044201     -0.007817     -0.032862
Li	      4.14927      4.19885      4.28969        -0.027795     -0.015099     -0.001997
Li	      6.24187      4.23976      6.31596        -0.019631     -0.003242      0.031943
Li	      6.25896      4.32353     10.63204         0.026465      0.006343     -0.023383
Li	      8.25199      6.28986     10.61044         0.007545      0.005696     -0.006983
Li	      2.07841      4.21081      6.19942        -0.000502      0.011655     -0.096869
Li	      6.24383      6.29863      8.49858        -0.014645      0.021337      0.086784
Sc	      4.22823      8.43240      8.37511         0.023266     -0.022081     -0.052502
Ti	      6.27283      2.05404      8.33928         0.096132     -0.003820     -0.133533
Ti	      8.30486      4.22995      8.42069        -0.056610     -0.109680     -0.091630
V	      6.28939      2.10379      4.29918        -0.025555     -0.006952      0.028868
V	      6.22528      6.22967      4.23163        -0.040108      0.031052      0.001581
V	      4.09578      6.29840      6.29320        -0.046872     -0.058640      0.048229
V	      8.35287      8.39325      8.49873        -0.010146      0.121868     -0.060212
Co	      8.39561      4.15522      4.37535         0.104923     -0.214468     -0.069287
Co	      8.24391      6.33090      6.36850         0.004338      0.018296     -0.050805
O	      2.05353      2.12760      2.09763        -0.046850      0.011254     -0.021536
O	      4.12419      4.22649      2.05838        -0.054330      0.077900      0.008258
O	      4.13532      2.13558      4.20851        -0.009900     -0.061777      0.093548
O	      6.32271      4.18344      4.25511        -0.024345     -0.022435     -0.026467
O	      6.24528      2.10624      6.40730         0.020290      0.006888      0.172828
O	      8.30773      4.25103      6.47024        -0.014797      0.023605      0.301728
O	      2.07633      4.07535      4.04290        -0.003757      0.021954     -0.083281
O	      4.24665      6.21249      4.18389        -0.035460      0.026375     -0.077824
O	      4.14885      4.24099      6.46191         0.001366      0.008459     -0.011095
O	      6.11852      6.29265      6.27765        -0.048831     -0.000221      0.016996
O	      6.24656      4.11178      8.46180         0.013419     -0.022197      0.031990
O	      8.38558      6.26415      8.49587         0.063875     -0.052705     -0.011085
O	      2.30745      6.27464      6.27144         0.033467      0.020620      0.003551
O	      4.19533      8.30132      6.35426        -0.011077      0.009009     -0.045859
O	      4.19585      6.30882      8.31860        -0.003157     -0.013305     -0.053144
O	      6.30054      8.43927      8.58989         0.005275     -0.026592      0.044226
O	      6.21818      6.45060     10.60535        -0.058283      0.043994     -0.044121
O	      8.32644      8.39636     10.50093         0.055375      0.205119      0.077297
