# total energy = -241.72778921 eV
 
CRYSTAL
PRIMVEC
0.007044 6.134664 6.325055 
6.486045 -0.021527 6.353582 
4.326471 4.111910 -0.016788 
PRIMCOORD
36 1
Li	      2.20371      8.13258      6.23653        -0.065401      0.017206     -0.021584
Li	      4.38349      8.09269      8.50975         0.033690     -0.024287      0.013488
Li	      4.50125      6.25808     10.52080        -0.108624      0.014741      0.021526
Li	      6.38908      8.02660     10.57647        -0.004700      0.123039      0.042085
Li	      2.22611      2.06634      4.23740         0.012904     -0.029038      0.008930
Li	      4.32578      2.00824      6.23536         0.008684     -0.012687     -0.036122
Li	      8.55965      6.13237     10.63802         0.026106     -0.007037      0.008897
Li	      4.31180      6.20793      6.28108         0.025291      0.001423      0.005190
Li	      6.42284      6.15198      8.54690        -0.047508      0.013430     -0.073220
Sc	      6.47115      4.16381      6.23129        -0.027251      0.033306     -0.146585
Ti	      2.19894      4.08894      2.08971         0.062162     -0.063072     -0.203653
Ti	      8.55100      8.19706      8.59756        -0.229633      0.130648      0.386544
V	      2.25075      6.15043      8.44850        -0.075659      0.115467      0.024013
V	      6.46938      2.05322      8.45583         0.014729     -0.040593      0.109214
V	      4.33338      4.00593      4.22192         0.072472      0.142312     -0.074940
V	      6.48425      8.15161      6.28402         0.435802      0.018188      0.007185
Cu	      6.51653      6.16247     12.53560        -0.018839     -0.132859      0.211435
Cu	      4.26319      8.18839      4.29262        -0.046233      0.020512     -0.258368
O	      2.05736      2.12472      2.10881         0.030079      0.131742      0.030589
O	      4.25781      4.08815      2.10972        -0.050252      0.049238     -0.122974
O	      4.35255      2.10763      4.19662        -0.006899     -0.147361      0.006980
O	      6.35827      4.12613      4.15464         0.086565     -0.044420     -0.018613
O	      6.49119      2.01030      6.45200        -0.005421      0.055413     -0.253673
O	      8.53960      4.09352      6.56366        -0.117923     -0.037541      0.228313
O	      2.32219      4.11923      4.14239         0.053560      0.027563     -0.201192
O	      4.32180      6.16628      4.05585        -0.009249     -0.003977      0.283940
O	      4.30996      4.06629      6.36320         0.035804      0.039627      0.126757
O	      6.46077      6.18860      6.30137         0.003006     -0.095869     -0.008360
O	      6.52824      4.12530      8.43542        -0.025261     -0.038502      0.047130
O	      8.76261      6.12472      8.44886        -0.078638     -0.019154      0.023190
O	      2.27049      6.07384      6.49345         0.129802      0.014987     -0.092365
O	      4.51006      8.27264      6.26823        -0.458564      0.039687      0.175919
O	      4.22574      6.03413      8.49269         0.165657     -0.249801      0.026978
O	      6.64020      8.16607      8.37969         0.145406      0.036928      0.114406
O	      6.46156      6.01412     10.60458         0.055493     -0.092500     -0.035619
O	      8.55085      8.14664     10.40307        -0.021155      0.013241     -0.355441
