# total energy = -254.96390224 eV
 
CRYSTAL
PRIMVEC
0.018908 6.450660 6.400792 
6.258066 -0.001149 6.420437 
4.162163 4.303840 0.008920 
PRIMCOORD
36 1
Li	      4.22906     10.63250      6.45056         0.024916     -0.020279      0.019120
Li	      4.18258      8.60104      8.38318         0.031549      0.019663     -0.025241
Li	      4.21319      6.44607      2.30832         0.032420      0.012421      0.029877
Li	      6.07321      6.56857      4.29460         0.024491      0.020591      0.014302
Li	      4.12177      4.40593      4.25311        -0.002154      0.006429      0.024756
Li	      4.26522      8.46535      4.36751        -0.051988     -0.014552     -0.003806
Li	      6.08504      8.56046      6.32073         0.034994     -0.008168     -0.047385
Li	      4.23080      6.60367      6.33845        -0.007619      0.027228      0.015014
Li	      6.18655      6.45576      8.52354        -0.012195     -0.006484     -0.013217
Sc	      2.02390      0.06545      2.12853         0.041964      0.060865     -0.013341
Ti	      6.20227      8.52026     10.64087        -0.104931     -0.083733     -0.152679
Ti	      8.23782      6.50176      6.48548        -0.381985      0.164849      0.026520
V	      2.20183      8.57065      6.41883         0.022541     -0.052160      0.057003
V	      2.19459      6.37249      4.30635         0.036419      0.006407      0.016015
V	      4.26492      6.47590     10.66553        -0.028219     -0.078496     -0.063968
V	      2.14628      4.25080      2.20228         0.034095      0.031289      0.134962
V	      6.19835      4.31060      6.43871        -0.055735      0.102479     -0.027453
V	      4.28393      4.31049      8.50790         0.012642      0.044320     -0.028325
O	      2.09342      2.16543      2.10262         0.012644     -0.096319     -0.013503
O	      4.12550      4.27750      2.14799        -0.022081      0.010445      0.015954
O	      4.25242      2.11795      4.45418         0.221364      0.046890      0.105533
O	      6.28431      4.16810      4.30804        -0.068280     -0.102976     -0.042406
O	      6.24669      2.20588      6.28343        -0.057198     -0.056107     -0.094434
O	      8.31081      4.29646      6.46309         0.054969      0.075177      0.057830
O	      2.06679      4.41428      4.17549         0.017794     -0.075818     -0.058424
O	      4.09672      6.44428      4.31428        -0.015741      0.017283     -0.008047
O	      4.14078      4.12516      6.45613        -0.025941     -0.272852     -0.013891
O	      6.37155      6.41998      6.39851         0.380259      0.021410      0.061997
O	      6.32874      4.30107      8.49095         0.018953     -0.038760      0.041761
O	      8.40226      6.42652      8.46705        -0.030913      0.033177     -0.185752
O	      2.08257      6.58607      6.39871        -0.010197     -0.010915      0.040896
O	      4.10108      8.63475      6.38397        -0.036694      0.027245     -0.022977
O	      4.17520      6.38224      8.57928        -0.014652     -0.017636     -0.045365
O	      6.31969      8.66444      8.69863        -0.023935     -0.020275      0.231542
O	      6.36403      6.60514     10.67704         0.043643      0.255393      0.003058
O	      8.30744      8.56784     10.66249        -0.095200     -0.028029     -0.035925
