# total energy = -214.93910301 eV
 
CRYSTAL
PRIMVEC
0.020553 6.588041 6.110519 
6.198759 0.033905 6.099309 
4.143082 4.396105 0.011459 
PRIMCOORD
36 1
Li	      6.01908      4.49883      2.04959         0.092789      0.049297      0.009682
Li	      4.07878      2.32756      2.07698        -0.001455     -0.031350      0.026107
Li	      6.32868      8.70176     10.11227        -0.035678     -0.006458     -0.016184
Li	      0.01848      2.20905      2.05718         0.044972      0.046541      0.040586
Li	      4.19484      4.41634      3.96230         0.007768     -0.000006      0.079735
Li	      6.20091      4.44377      6.17804        -0.050323      0.021959     -0.028093
Li	     10.30336      8.72819     10.14201         0.009536     -0.026684     -0.008436
Li	      8.32497      6.89885     10.16753         0.000147      0.021030     -0.024484
Li	      8.28650      8.75548      8.21576        -0.007972      0.032798     -0.030938
Sc	      8.21522     10.93276     10.16544        -0.022117     -0.003275     -0.001879
Sc	      6.14297      8.77245      6.14899        -0.018201      0.187204     -0.036703
Mn	      4.12529      6.49044      6.12101        -0.038351     -0.048349     -0.031691
Fe	      4.38193      2.35504      6.10157        -0.231385      0.079616     -0.140208
Fe	      6.31452      6.57775      8.28483        -0.089654     -0.000299     -0.147082
Co	      6.16529      6.58956      4.02741         0.097512      0.046036     -0.019293
Cu	      6.22780      0.11503      6.10146         0.183798     -0.174876     -0.168168
Cu	      2.03045      2.17767      0.03718        -0.026391     -0.004872      0.120311
Ni	      2.10400      4.40821      2.04915         0.006526     -0.102684      0.056590
O	      4.02012      4.37549      1.90600         0.162454     -0.016570      0.043198
O	      6.24721      2.42123      6.05983         0.122579      0.136208     -0.038469
O	      2.01799      2.33249      2.07137        -0.005275      0.031626      0.058384
O	      3.94351      2.18208      4.12554        -0.035990     -0.035530     -0.013280
O	      6.19723      4.69979      3.98148        -0.006392      0.060443      0.092297
O	      8.36338      4.68535      6.13936         0.052793      0.043837     -0.045692
O	      2.06170      4.07679      4.02337         0.029491     -0.089112      0.182823
O	      4.26679      6.53866      4.18433        -0.051777     -0.006495     -0.010722
O	      4.11779      4.41844      6.10083        -0.059290      0.015893     -0.011083
O	      6.11203      6.59158      6.02515         0.205380      0.020561      0.055824
O	      6.42600      4.59876      8.16932        -0.192329      0.017067     -0.015388
O	      8.29965      6.61196      8.09178         0.058778      0.018214      0.130810
O	      2.15647      6.42902      6.10450        -0.154679     -0.174780      0.015147
O	      4.05035      8.42721      6.15254        -0.029261     -0.096104     -0.022685
O	      4.26926      6.42821      8.05910        -0.030786      0.010146      0.078528
O	      6.19368      8.56416      8.15064         0.003645     -0.021324     -0.020678
O	      6.22476      6.65066     10.24806         0.032212     -0.033673      0.058488
O	      8.28616      8.90046     10.29793        -0.023075      0.033963     -0.217354
