# total energy = -217.87744407 eV
 
CRYSTAL
PRIMVEC
0.000929 6.301404 6.210946 
6.271007 -0.029025 6.240778 
4.173409 4.213551 -0.011678 
PRIMCOORD
36 1
Li	      0.05264      6.32134      6.23989        -0.023250     -0.026866      0.003956
Li	      6.26842     10.41505      8.32999         0.042252     -0.045075      0.148955
Li	      6.27594      8.39979     10.24040         0.077246      0.173516     -0.051429
Li	      6.22668      6.13611      4.29275         0.004774     -0.180992     -0.008835
Li	      4.17794      4.29906      4.21048         0.049970      0.044413     -0.018329
Li	      6.17722      4.27782      6.22234         0.087784      0.011025     -0.148539
Li	      2.26235      4.18355      6.25719        -0.041282     -0.000554      0.016051
Li	      4.24105      6.13575      6.24608         0.001114     -0.004195     -0.012829
Li	      4.07361      4.33456      8.15060        -0.083153      0.032229      0.011313
Sc	      4.17755      2.22321      6.13329        -0.076837     -0.014943      0.204437
Sc	      4.20487      8.43006      4.19226         0.059299      0.055108      0.059192
Mn	      8.29535      8.32146     12.43503        -0.029137      0.100305      0.138033
Fe	      4.27758      8.40398      8.30945        -0.179866     -0.110476     -0.180246
Fe	      2.13330      4.19718      2.08445        -0.019758     -0.044230     -0.165041
Co	      8.22497      4.22989      4.13904         0.120431      0.345188     -0.087107
Co	      8.34955      6.30860     10.37311        -0.071672     -0.217646      0.045385
Cu	      4.19329      6.27395      2.07821         0.029546     -0.002935      0.016091
Ni	      6.24512      6.32903      8.24943        -0.096331     -0.010729      0.018699
O	      6.41764      4.16475      4.13195         0.325847      0.056999      0.057782
O	      2.10248      2.13619      1.94804        -0.058530      0.033514     -0.123594
O	      4.10321      4.12850      2.08272         0.109653      0.150725     -0.021405
O	      4.15105      2.06612      4.09714        -0.067704     -0.933059      0.079350
O	      6.36744      2.02944      6.37039         0.063343     -0.045597     -0.157187
O	      8.35557      4.05253      6.18289         0.043278     -0.015663     -0.268649
O	      2.08060      4.36990      4.09929        -0.008789      0.167577      0.159267
O	      4.04274      6.33718      4.03247        -0.096878     -0.030016      0.158001
O	      4.21209      4.15405      6.22010         0.004465      0.043050     -0.053196
O	      6.32612      6.30883      6.27275         0.002822     -0.017681     -0.202810
O	      6.38832      4.18059      8.34321        -0.146330     -0.083830     -0.020861
O	      8.38411      6.21614      8.36422         0.041585      0.089825      0.051329
O	      2.06274      6.45325      6.04385         0.011057     -0.016630     -0.042295
O	      3.97267      8.38709      6.26690        -0.058586     -0.011233     -0.101652
O	      4.18452      6.34555      8.43390        -0.065078      0.047763      0.392404
O	      6.16100      8.37960      8.22628         0.254240      0.073147      0.030486
O	      6.32751      6.27652     10.28752        -0.114767     -0.029028      0.164728
O	      8.33651      8.27875     10.50847        -0.090760      0.416995     -0.091452
