# total energy = -221.44468249 eV
 
CRYSTAL
PRIMVEC
-0.005633 6.263745 6.178859 
6.450638 0.001886 6.171573 
4.315193 4.185414 -0.013349 
PRIMCOORD
36 1
Li	     10.61641      4.21726      6.11004        -0.135802      0.023181      0.005441
Li	      8.53745      2.18398      6.18815        -0.021887      0.021317     -0.011861
Li	      6.42969      8.32044     10.23675         0.004404     -0.047434     -0.017241
Li	      8.56043      4.20167      8.09227        -0.021006      0.044559     -0.052942
Li	      8.64886      6.26627      6.25140         0.033173     -0.086289      0.092484
Li	      6.53980      4.13264      6.22482         0.101699     -0.030732      0.034883
Li	      6.50284      8.30549      6.18653        -0.021975      0.027239      0.012947
Li	      8.61446      8.24855      8.23745         0.048507     -0.006270      0.032728
Li	      6.51322      6.45944      8.17785         0.030145      0.004851      0.003050
Sc	      6.40446     10.36745      8.15055         0.094064      0.134259     -0.233887
Sc	      4.41721      6.22569      6.21571        -0.119614      0.231917      0.241005
Mn	      8.56779      6.29070     10.29551        -0.019909      0.248971     -0.188140
Fe	      8.59343      4.12646      4.22382         0.212567     -0.072955     -0.192887
Fe	      2.26129      2.13596      4.16797        -0.274700      0.067310     -0.066903
Fe	      6.45168      4.27647     10.30221        -0.226813     -0.079768      0.022574
Co	      6.45566      2.11286      8.20151        -0.692971     -0.084544      0.072797
Co	      4.30975      4.15999      4.15601         0.143632      0.054368     -0.411327
Ni	      4.33280      8.37836      8.15084        -0.198199      0.060519     -0.202707
O	      2.01485      2.08523      2.13114         0.015910      0.141217     -0.023107
O	      4.30861      4.26301      2.23674        -0.028516     -0.007999      0.035171
O	      4.21906      2.17418      4.00680         0.159360     -0.138382      0.209930
O	      6.52941      4.24825      4.07808        -0.009321      0.010699      0.021942
O	      6.42008      2.04553      6.44564         0.214265      0.048290     -0.021114
O	      8.61116      4.20350      6.05318        -0.056320      0.030433      0.250561
O	      2.10058      4.24218      4.11294        -0.029909     -0.093955      0.026331
O	      4.40943      6.20490      4.04309         0.116717      0.135924     -0.020208
O	      4.31540      4.16908      5.96704        -0.011175     -0.181653      0.287185
O	      6.42886      6.26878      6.08900         0.116084      0.016499      0.086567
O	      6.44169      3.94537      8.33546         0.126467      0.150625     -0.057504
O	      8.79621      6.27982      8.35755         0.186480     -0.097848      0.147021
O	      2.22738      6.27508      6.07422         0.016730      0.001051      0.032642
O	      4.31052      8.33434      6.08998         0.017968     -0.098139      0.008551
O	      4.20902      6.30384      8.25961         0.100180     -0.098299     -0.073237
O	      6.37011      8.40370      8.20758         0.127122     -0.278795      0.030758
O	      6.35996      6.20944     10.22116         0.007847      0.147200     -0.060288
O	      8.67875      8.33666     10.28362        -0.005204     -0.197367     -0.021218
