# total energy = -213.46502712 eV
 
CRYSTAL
PRIMVEC
0.017047 6.325234 6.188909 
6.306457 -0.001667 6.207709 
4.186779 4.211799 0.016314 
PRIMCOORD
36 1
Li	      8.38273      8.39640     12.24391         0.072631      0.037447      0.066127
Li	      8.34541      4.09206      4.28192         0.034368      0.053642      0.020493
Li	      6.43092      2.18568      4.20988        -0.047437      0.033178     -0.060449
Li	      6.16475      2.23198      8.16627         0.033074     -0.035373     -0.073472
Li	      4.35705      2.07463      6.17527         0.000512     -0.071181     -0.017890
Li	      6.15763      4.14481      6.17368         0.073134     -0.018069      0.036964
Li	      8.42610      6.50880     10.36188         0.008941     -0.033917     -0.038540
Li	      2.15560      4.30391      6.16795        -0.081009     -0.018646      0.121836
Li	      8.52194      8.29788      8.28169        -0.057310      0.019154      0.000546
Sc	      8.38018      4.23140      8.22772        -0.089258      0.055887     -0.206090
Sc	      6.30168      6.41873      8.28261         0.122477     -0.033313     -0.013148
Mn	      6.36910      6.35907     12.33734        -0.112961      0.035514      0.093954
Mn	      6.30024      6.26330      4.19517         0.117172      0.017393     -0.166514
Co	      4.17170      2.11078      2.07169        -0.023142     -0.010213      0.049829
Cu	      4.15379      6.27694      6.19463        -0.125298      0.161201      0.136082
Ni	      6.31940     10.49246      8.28077         0.017384     -0.012007      0.002150
Ni	      4.21064      4.19881      4.22076        -0.133128     -0.025085     -0.042679
Ni	      4.17759      8.40913      4.16498        -0.096099      0.039118     -0.068446
O	      4.16601      4.29907      6.20754        -0.051540      0.004359     -0.003933
O	      8.59392      8.45488     10.27934        -0.157087     -0.020829      0.086942
O	      2.19548      2.07415      2.22517        -0.013873      0.049223      0.096792
O	      4.21782      4.08481      2.01126        -0.091360     -0.044857     -0.028901
O	      4.02903      2.16348      4.02594        -0.066257     -0.046740      0.058023
O	      6.26201      4.34713      4.14519         0.001584      0.013615      0.113872
O	      6.35431      1.91392      6.16986         0.025134     -0.036240     -0.017519
O	      8.61552      4.21079      6.21685         0.056146     -0.011886      0.006781
O	      2.02145      4.01136      4.14732         0.228008     -0.052216      0.056670
O	      4.31703      6.30841      4.21322         0.034693     -0.052055     -0.096331
O	      6.21408      6.28836      6.13499        -0.047053      0.009756      0.041467
O	      6.33500      4.25009      8.30517         0.033277      0.018103     -0.153497
O	      8.34245      6.26926      8.28889        -0.016754      0.012062     -0.052407
O	      2.05658      6.33211      6.21927         0.159066      0.004690     -0.190895
O	      4.19838      8.54145      6.28375         0.123344     -0.056947      0.131772
O	      4.16692      6.51251      8.15845         0.067224      0.033468      0.078837
O	      6.12476      8.44770      8.35566        -0.069383     -0.065589     -0.016219
O	      6.35419      6.23290     10.43035         0.070779      0.047354      0.047794
