# total energy = -139.88199739 eV
 
CRYSTAL
PRIMVEC
-4.142582 -0.007928 4.154091 
0.019610 -4.183565 4.181649 
6.199195 2.016521 4.135466 
PRIMCOORD
24 1
Li	     -1.02415     -3.16234      7.28654         0.000854     -0.000043     -0.000603
Li	      1.04986     -1.03331      7.28485         0.010219     -0.001142      0.003744
Li	      1.04689     -3.15829      5.20930         0.000487     -0.000596      0.000117
Li	      3.12012     -1.16078      5.11060         0.004871      0.003640     -0.010353
Li	      3.08226      0.90905      7.24206        -0.012627      0.002879     -0.003948
Li	      5.15351      1.04409      5.26190        -0.004341     -0.002108      0.009074
Mn	      1.01361      0.99833      5.18641         0.002947      0.006600      0.004862
Mn	      3.11782     -1.12205      9.34056        -0.002230     -0.009587      0.000103
Mn	      1.03745     -1.06638      3.11895        -0.000787      0.003528     -0.002182
Ni	     -1.03393     -1.07030      5.19583        -0.000092      0.000306      0.000599
Ni	      3.11436      1.00373      3.09015        -0.008228      0.020432      0.029520
Ni	      5.15970     -1.11968      7.28282         0.007768     -0.022416     -0.029309
O	      2.99863      1.12431      5.18446        -0.019123      0.026426      0.099295
O	     -1.17303     -3.14389      5.19664        -0.047885     -0.103093      0.112432
O	      1.02124      0.98910      7.08622         0.119732     -0.107742     -0.059258
O	     -3.10634     -3.02328      7.19867         0.103765      0.024886     -0.021666
O	      1.05584     -0.97049      5.07703         0.100867      0.022199     -0.028536
O	     -1.17339     -1.04631      7.24541        -0.041846     -0.111848      0.110872
O	     -0.87517     -3.18027      9.37649         0.047815      0.103811     -0.112047
O	      1.13275     -1.24808      9.34263         0.018586     -0.026110     -0.101128
O	      1.05828     -3.30065      7.37479        -0.104267     -0.026883      0.020113
O	      3.11020     -1.11295      7.44091        -0.118252      0.107193      0.060270
O	     -3.12366     -1.16984      5.31477        -0.101018     -0.022541      0.027192
O	     -0.89448     -1.09417      3.14618         0.042786      0.112206     -0.109165
