# total energy = -212.24350915 eV
 
CRYSTAL
PRIMVEC
-0.013097 6.280743 6.196388 
6.329282 -0.055026 6.237637 
4.191661 4.187438 -0.008941 
PRIMCOORD
36 1
Li	      4.15496      4.05535      0.12935         0.049880     -0.116499      0.128464
Li	      2.15067      2.15207      0.08767         0.031569     -0.073168      0.040441
Li	      4.14198      2.14115      1.96112        -0.080338      0.016807     -0.001675
Li	      0.10324      2.03774      2.11528         0.027888     -0.098662      0.047626
Li	      2.08344      4.09393      2.09376         0.008013     -0.091957     -0.000066
Li	      1.94070      2.17668      4.07435        -0.065889      0.016404     -0.074937
Li	      4.15267      4.24095      4.11372        -0.023069      0.068321     -0.015972
Li	      4.29509      8.25408      4.25003        -0.016427     -0.015134      0.075916
Li	      4.25213      6.41554      6.07394        -0.096566      0.076599      0.062531
Sc	      2.20212      6.19938      4.16911         0.109908      0.041995      0.407162
Sc	      4.26278      4.14653      8.20675         0.130360      0.035911     -0.188333
Mn	      2.01129      0.08021      2.05745        -0.209110      0.331385     -0.333163
Mn	      8.38636      4.15152      4.16822        -0.005938      0.038799      0.048678
Co	      6.31856      4.16912      6.17432         0.147527      0.166537      0.018653
Cu	      6.28099      2.01926      4.19046         0.071224      0.033693     -0.090191
Cu	      4.26450      2.04689      6.25035        -0.117149     -0.122641      0.056866
Cu	      6.14127      8.35078      6.16088         0.079450     -0.068267     -0.101061
Cu	      6.29658      6.21405      8.25725         0.086048     -0.093332     -0.080681
O	      6.24521      2.27188      6.20123         0.310318      0.031898     -0.125856
O	      8.29787      4.20451      6.10840        -0.067354     -0.169818     -0.090840
O	      6.41219      6.19565      6.31695        -0.014858     -0.311732     -0.080834
O	      4.21612      8.36406      6.20302        -0.065718     -0.113853     -0.051898
O	      2.10934      1.91818      2.03848        -0.062740     -0.030212      0.173738
O	      4.37589      4.16709      2.10339         0.036681      0.010899      0.093657
O	      4.33962      1.87955      4.25056        -0.055136     -0.107000     -0.124386
O	      6.46133      4.22600      4.14128        -0.070900     -0.150340      0.114555
O	      2.09929      4.17986      4.23161        -0.082797     -0.090759     -0.058474
O	      4.12124      6.29600      4.15533        -0.091073      0.019413     -0.092705
O	      4.38029      4.07378      6.15167        -0.052543      0.168294      0.002447
O	      6.32615      4.20462      8.08874         0.070988     -0.078624     -0.047010
O	      8.47036      6.27670      8.31799         0.009921     -0.038647     -0.057357
O	      2.08007      6.19405      6.33229         0.150690      0.609491      0.122734
O	      4.02455      6.24965      8.44651         0.049883     -0.021289      0.046488
O	      6.30603      8.43273      8.15945        -0.229147     -0.083459      0.118533
O	      6.12874      6.16898     10.22420         0.023914      0.120427      0.091636
O	      8.26322      8.41737     10.34878         0.012491      0.088519     -0.034684
