# total energy = -234.86114617 eV
 
CRYSTAL
PRIMVEC
0.039715 6.354562 6.269467 
6.351704 0.006721 6.303213 
4.199022 4.223180 0.040830 
PRIMCOORD
36 1
Li	      4.18840      4.22259      0.08360         0.022620     -0.005226      0.050239
Li	      8.45437      4.32095      8.36461        -0.021985      0.000937      0.011874
Li	      6.31576      6.34765      4.26270         0.020386      0.006227     -0.041613
Li	      8.41038      6.21238      6.39839        -0.056728      0.025402     -0.024713
Li	      6.40902      4.30828      6.31385        -0.066018      0.022996     -0.008938
Li	      2.15576      6.29244      4.24746        -0.028964      0.011726      0.038245
Li	      2.11890      4.28643      6.24060         0.059458     -0.000071     -0.038089
Li	      4.23622      6.34017      6.30748         0.024663     -0.060426      0.048089
Li	      4.33482      4.19513      8.34608         0.021031      0.005786     -0.028940
Sc	      2.11842      2.16174      0.05750         0.016345     -0.028382      0.095710
Sc	      6.33286      2.08825      4.30910        -0.101911      0.098120      0.011439
Mn	      0.11882      4.22987      4.18663         0.052371     -0.054762      0.060274
V	      4.11398      4.30238      4.31811         0.098120     -0.538387      0.523631
Cr	      2.20400      6.33207      8.32701         0.060689      0.003863      0.033242
Cr	      4.28412      8.46473      8.35583        -0.083814      0.050625      0.130676
Cr	      6.48285      6.32813      8.30025        -0.004492      0.041252     -0.193603
Cu	     10.45365      6.34408      8.37510         0.006389      0.031044      0.002058
Ni	      8.39332      4.25438      4.30154        -0.100285      0.111989      0.001728
O	      2.25283      1.97695      2.12058         0.013808      0.165967     -0.034850
O	      4.34176      4.13928      2.23641        -0.154273     -0.098606     -0.120836
O	      4.22425      2.19863      4.11510         0.039101     -0.059283     -0.127407
O	      6.25863      4.18383      4.15689         0.025597      0.041878     -0.117895
O	      6.34229      2.12976      6.37130        -0.052825     -0.025428      0.006919
O	      8.45414      4.20657      6.31051        -0.009437      0.066869      0.181533
O	      2.17106      4.20633      4.17950        -0.272518      0.031442     -0.060432
O	      4.17721      6.23659      4.02911        -0.010332      0.415449     -0.096955
O	      4.25361      4.24184      6.06949        -0.053188      0.096136     -0.266123
O	      6.28344      6.30130      6.51696         0.059851      0.029905      0.238317
O	      6.39509      4.33649      8.57686         0.011786      0.067746     -0.108875
O	      8.29527      6.40305      8.40625        -0.126059     -0.035528      0.015062
O	      2.15366      6.39852      6.37557         0.028273     -0.048428     -0.012727
O	      4.25354      8.46712      6.21797         0.054177     -0.008935      0.017445
O	      4.26914      6.46210      8.44282         0.128390     -0.121761     -0.117514
O	      6.30057      8.46059      8.41048         0.102269     -0.065044      0.014152
O	      6.29125      6.38618     10.33663         0.197744     -0.031630     -0.080216
O	      8.49265      8.50386     10.52264         0.099763     -0.143463     -0.000905
