# total energy = -238.29146339 eV
 
CRYSTAL
PRIMVEC
-0.025417 6.298663 6.409978 
6.339535 0.002167 6.381894 
4.228647 4.183070 -0.000933 
PRIMCOORD
36 1
Li	      2.17847      2.04373      0.24494         0.018143     -0.003311      0.037358
Li	      2.04988      0.23538      2.26634         0.011256     -0.031758      0.062638
Li	      4.01981      2.12181      2.17677         0.016938     -0.015130      0.042523
Li	      4.43349      6.17545      2.25375         0.030330     -0.037934      0.038962
Li	      2.16955      4.01451      2.28314         0.010485      0.019854      0.033593
Li	      2.05298      2.16301      3.98141        -0.000587      0.044808      0.065947
Li	      4.15827      4.23433      4.06171        -0.041427      0.010709      0.034556
Li	      0.06029      4.11743      4.21488         0.049248     -0.007179     -0.050293
Li	      8.41451      8.40213      8.55583        -0.025891      0.034019     -0.040983
Sc	      4.21915      4.14328      0.25193         0.031020      0.016511     -0.025513
Sc	      6.35821      4.09056      6.43470         0.001294     -0.108385      0.036759
Mn	      4.18605      6.25375     10.58134         0.031624      0.012430      0.003583
V	      6.29917      6.31762      8.54820        -0.019438      0.100719     -0.053699
Cr	      8.44592      6.27486      6.43505        -0.031363      0.056813      0.162834
Cr	      8.49004      6.32902     10.56966        -0.058305     -0.092383     -0.057704
Cr	      4.18743      6.33157      6.36799        -0.058170     -0.001577      0.000877
Fe	      2.09933      4.20189      6.28671         0.060273      0.025276      0.025508
Cu	      6.29980      8.44441     10.57969        -0.055737      0.051724     -0.001820
O	      2.10291      2.11379      2.12108        -0.015953     -0.016533      0.095379
O	      4.28959      4.13037      2.13154         0.023670     -0.001939      0.094229
O	      4.31246      1.93707      4.42517        -0.007925     -0.062593     -0.120333
O	      6.49408      4.13151      4.31051         0.023101      0.034864     -0.081388
O	      6.17761      2.07866      6.55350         0.003937     -0.042936      0.137029
O	      8.45615      4.28134      6.41570         0.010067     -0.065205      0.038318
O	      2.10349      4.33155      4.34233        -0.005822     -0.059256     -0.151253
O	      4.09567      6.32803      4.37534         0.032216      0.050056     -0.066795
O	      4.21840      4.18446      6.35793        -0.043711     -0.006828     -0.033577
O	      6.31564      6.27958      6.42449         0.036934      0.031196     -0.133430
O	      6.31225      4.45698      8.46308        -0.039864     -0.112384      0.061780
O	      8.31041      6.32858      8.53351         0.111580      0.036975     -0.033588
O	      2.14007      6.25336      6.25701         0.094712      0.109991      0.040999
O	      4.30712      8.34240      6.35360        -0.105801     -0.091948     -0.051330
O	      4.31083      6.29395      8.41311        -0.164302      0.005602     -0.020227
O	      6.34751      8.16212      8.29870         0.026090      0.123393     -0.111735
O	      6.28074      6.34870     10.55644         0.019263     -0.019346      0.101717
O	      8.30449      8.43851     10.63650         0.032118      0.011683     -0.080922
