# total energy = -237.26022515 eV
 
CRYSTAL
PRIMVEC
-0.039456 6.230891 6.401083 
6.318005 -0.050451 6.411177 
4.192473 4.141281 -0.012696 
PRIMCOORD
36 1
Li	      0.07033      0.01225      0.08352         0.011416     -0.051739     -0.009802
Li	      2.06497      1.98975      0.08257         0.000509     -0.046896     -0.014370
Li	      2.07358      6.18638      8.39099         0.056365     -0.026638     -0.060549
Li	      4.16249      8.33613      8.42735         0.019277      0.049343     -0.010176
Li	      4.15070      4.13054      4.16662        -0.032791     -0.003391     -0.091129
Li	      6.33177      4.09945      6.47825         0.008092      0.070009     -0.016937
Li	      2.04027      6.24490      4.32831        -0.010736      0.023249      0.070385
Li	      4.10787      6.22046      6.54532         0.002490     -0.006480      0.089315
Li	      6.24491      6.20351      8.50854        -0.034546     -0.000935      0.011909
Sc	      4.20930      6.24031     10.60858         0.018117      0.121963     -0.020951
Sc	      0.00516      4.19551      4.32008        -0.037046      0.072867      0.186927
Mn	      8.39083      6.17820      6.40871        -0.131316      0.041171     -0.138785
Mn	      6.25765      8.32006      6.45232         0.003813     -0.007919     -0.063482
V	      6.25685      6.11234      4.22208         0.236620     -0.124216      0.071390
Cr	      4.17236      6.17806      2.08771         0.234736     -0.124239      0.070361
Cr	      8.36455      8.26096      8.52889        -0.098741      0.096504     -0.081337
Co	      6.29336      2.04066      4.27917        -0.031594     -0.016510      0.067224
Cu	      8.45433      4.09990      8.43348         0.018486     -0.097398      0.044447
O	      2.01237      2.10839      2.25977        -0.046081      0.066251     -0.137605
O	      4.08622      4.22524      2.11916        -0.114669      0.032171     -0.091530
O	      4.13215      2.08002      4.19051        -0.159857      0.032675     -0.025834
O	      6.28381      4.25585      4.28558        -0.024491      0.234693     -0.071670
O	      6.19237      2.07864      6.44834         0.047598     -0.000582     -0.044599
O	      8.35613      4.25464      6.30832         0.039176     -0.045289      0.015123
O	      2.08503      3.98953      4.47096         0.036320      0.086607      0.014062
O	      4.32156      6.22616      4.14172        -0.124937      0.003219     -0.071939
O	      4.05902      4.02107      6.53417         0.052435     -0.023090      0.045890
O	      6.37171      6.27062      6.26769         0.025880      0.021976      0.034887
O	      6.27931      4.04550      8.58814        -0.055246     -0.003646     -0.025729
O	      8.48610      6.21173      8.58891        -0.108525      0.034705      0.064079
O	      2.11129      6.03621      6.38163        -0.047147      0.002451      0.023926
O	      4.33094      8.26182      6.37381         0.003924     -0.020809      0.017648
O	      4.19018      6.09126      8.56856        -0.014632     -0.074712     -0.031885
O	      6.35661      8.25378      8.42370         0.039003     -0.009247      0.186795
O	      6.26506      6.22454     10.64576         0.045259     -0.266731      0.013888
O	      8.36749      8.27812     10.61421         0.172835     -0.039389     -0.019946
