# total energy = -238.28437559 eV
 
CRYSTAL
PRIMVEC
-0.010320 6.297871 6.211815 
6.488763 -0.010355 6.211521 
4.326326 4.198810 -0.007299 
PRIMCOORD
36 1
Li	      4.27938      6.23254     10.25985        -0.036201      0.010407      0.040803
Li	      6.65965      8.31725     10.26444         0.023333     -0.042000     -0.015201
Li	     10.72512      6.38218      8.34383         0.004500      0.006769     -0.036908
Li	      8.47692      4.26389      8.35790        -0.047859     -0.063965     -0.052340
Li	      6.50169      4.21179     10.19975        -0.011176     -0.014043      0.002856
Li	      6.60537      8.27571      6.25544         0.012606     -0.002362      0.035606
Li	      4.36060      6.33106      6.21933        -0.006239     -0.003617      0.025164
Li	      4.31940      4.23883      8.28962         0.042220      0.030465     -0.024099
Li	      6.53197      6.19201      8.36290        -0.014855     -0.026068     -0.044162
Sc	      6.48017      6.33399     12.35283        -0.039925      0.012634      0.026227
Sc	      4.42749      8.30749      8.33093        -0.020504     -0.022282      0.037808
Mn	      6.34390      6.36992      4.16060        -0.022719      0.067862     -0.043563
Mn	      8.56252      6.29487      6.28817        -0.024271     -0.035670     -0.001437
V	      8.65591      8.45362     12.35403         0.038697      0.048678      0.088630
Cr	      2.18913      6.26261      8.28220        -0.013421      0.085229     -0.016295
Cr	      2.20452      6.25429      4.06084         0.039041     -0.058920     -0.015352
Fe	      6.37620      4.22675      6.39487         0.040366     -0.071939     -0.267100
Ni	      4.29369      4.22041      4.12963         0.005710     -0.007064     -0.022603
O	      2.20571      2.03132      1.87607         0.004994     -0.004372      0.039967
O	      4.47510      4.15661      2.03526         0.045716      0.021364     -0.082825
O	      4.10839      2.11715      4.25273         0.013674     -0.091033      0.055296
O	      6.40040      4.40088      4.06621         0.071949      0.027638      0.092461
O	      6.63071      2.17376      6.12788         0.031557     -0.020564      0.001855
O	      8.65647      4.18990      6.15441        -0.006278      0.035929     -0.018672
O	      2.20567      4.16224      4.15242        -0.092984     -0.011648      0.001502
O	      4.31907      6.26739      4.15009        -0.090708      0.138393     -0.004783
O	      4.38520      4.00591      6.20599        -0.055070      0.021872      0.100635
O	      6.42976      6.20064      6.25066         0.024225      0.097505      0.007193
O	      6.48440      4.16719      8.22528         0.022639      0.006524      0.236682
O	      8.69849      6.23922      8.23699        -0.007090     -0.017619     -0.021141
O	      2.13015      6.40844      6.16873         0.024304     -0.047873      0.014700
O	      4.15334      8.47099      6.25761        -0.027677     -0.016203     -0.049709
O	      4.17265      6.29637      8.31226         0.016895      0.005888      0.011579
O	      6.43621      8.49466      8.30664         0.025718     -0.049927      0.004884
O	      6.69718      6.28526     10.35033         0.017464      0.006360     -0.009724
O	      8.68673      8.29022     10.51407         0.011368     -0.016346     -0.097935
