# total energy = -244.32223286 eV
 
CRYSTAL
PRIMVEC
0.010564 6.423848 6.372561 
6.187684 0.013694 6.370050 
4.128049 4.283979 0.005863 
PRIMCOORD
36 1
Li	      4.13394     10.63998      6.31711        -0.018895     -0.030162     -0.017451
Li	      4.27679      6.43542     10.64630         0.051195     -0.021844     -0.010181
Li	      6.25322      8.39051     10.68805        -0.043490     -0.065449     -0.053643
Li	      4.09895      6.40422      2.18096         0.014152      0.025704     -0.033426
Li	      8.29970      4.34309      8.45711         0.018454      0.004747     -0.050437
Li	      4.08680      4.39335      4.22348         0.015549     -0.023755     -0.012108
Li	      6.20752      4.33673     10.56507        -0.017675      0.023977     -0.011291
Li	      4.11268      6.42205      6.30899        -0.015548      0.020103      0.035583
Li	      6.21467      6.32589      8.58796        -0.000546      0.010939      0.016403
Sc	      8.27962      8.58835     12.68686         0.000153     -0.009694     -0.082503
Sc	      4.17366      2.13328      2.23727         0.050681     -0.069055     -0.010339
Mn	      6.06087      6.50044      4.23321        -0.001278      0.025271      0.025220
Mn	      4.16183      2.12016      6.36780         0.018458     -0.015463      0.034714
Mn	      4.19384      4.33753      8.52053        -0.116505      0.019885      0.015031
V	      6.15851      4.29660      2.22278         0.113904     -0.088393     -0.063579
Cr	      6.15100      4.32248      6.32500        -0.040730      0.087963      0.007580
Cr	      2.06507      4.31675      6.34718         0.044449     -0.034471      0.146663
Fe	      8.21672      6.40064     10.50127         0.131217     -0.048596      0.042731
O	      2.08627      2.08477      2.07178        -0.021097      0.105202     -0.000787
O	      4.20406      4.18842      2.14396        -0.120096      0.058412      0.008803
O	      4.00116      2.14216      4.33828        -0.071233      0.049371      0.032158
O	      6.13147      4.47249      4.23944        -0.030917      0.122989      0.065734
O	      6.10733      2.30233      6.29644        -0.016168      0.037780      0.014549
O	      8.15215      4.22493      6.35906         0.010820     -0.020872      0.023306
O	      2.04380      4.30381      4.35123         0.034725     -0.109691      0.005958
O	      4.12328      6.46489      4.22956         0.052754     -0.018585      0.020033
O	      4.10559      4.33888      6.37864         0.012529     -0.034156     -0.032854
O	      6.31796      6.46962      6.40092         0.029630     -0.029146      0.007260
O	      6.06016      4.33401      8.31614         0.043772     -0.004383      0.028888
O	      8.28510      6.49841      8.44371         0.007419     -0.028052     -0.114153
O	      2.06718      6.35252      6.45222         0.020538      0.031167     -0.049460
O	      4.18325      8.52518      6.48723         0.015813     -0.002637      0.034116
O	      4.06564      6.39916      8.58192         0.017845      0.063416     -0.007709
O	      6.30502      8.62536      8.43873        -0.000060     -0.029395     -0.027956
O	      6.33480      6.41796     10.61915        -0.182062     -0.044429     -0.016280
O	      8.28796      8.43060     10.64691        -0.007760      0.041304      0.029425
