# total energy = -233.11312436 eV
 
CRYSTAL
PRIMVEC
0.012273 6.180485 6.363029 
6.284416 0.003547 6.371546 
4.207612 4.144558 -0.015982 
PRIMCOORD
36 1
Li	      4.28487      8.25891      8.52620         0.003491      0.037403      0.035541
Li	      6.39180      8.25375     10.56108         0.001682      0.047846     -0.031814
Li	     10.45708      6.27249      8.53499        -0.010578      0.007899      0.017325
Li	      4.21335      4.11022      4.29034         0.017301      0.002586      0.031592
Li	      6.23102      4.06846      6.41807        -0.032255     -0.017796      0.069746
Li	     10.40509      8.26007     10.52029         0.035235     -0.056483     -0.036782
Li	      8.41629      6.32905     10.52688         0.076646      0.017601     -0.048821
Li	      2.15000      4.09917      6.35665         0.041244      0.003568     -0.002770
Li	      8.44393      8.23414      8.58363        -0.009180     -0.012779     -0.000083
Sc	      2.08885      4.11430      2.16633         0.033599      0.028911      0.139120
Sc	      4.21154      6.09365      6.34643         0.057363     -0.141015     -0.205032
V	      0.06336      6.10763      6.29278        -0.118340      0.131504      0.058226
Cr	      6.29107     10.26588      8.49970         0.012398      0.029531      0.091111
Cr	      4.18751      2.12681      6.36872         0.070646      0.062956      0.024695
Cr	      6.29347      6.25411      8.55616         0.074332     -0.002904     -0.170041
Fe	      2.07277      2.07738      4.22506        -0.043992     -0.035471      0.017968
Ni	      8.31877      2.09852      6.28783        -0.043712     -0.027233      0.192664
Ni	      8.41400     10.28142     10.56216        -0.156517      0.110054      0.051959
O	      2.08820      2.00297      2.11604         0.024409     -0.051615     -0.099646
O	      4.26788      4.13046      1.94074         0.141059     -0.044692     -0.196591
O	      4.03735      1.99955      4.38168         0.276333     -0.079603     -0.018827
O	      6.34541      4.24333      4.11104        -0.005592     -0.272255     -0.012931
O	      6.21546      1.90656      6.35665        -0.062382     -0.130880     -0.073528
O	      8.49525      4.18942      6.35971         0.042557      0.033968     -0.071806
O	      2.17272      3.98301      4.19158         0.006158      0.295312     -0.018134
O	      4.35673      6.18769      4.29168        -0.317824      0.018740      0.103859
O	      4.23025      4.09385      6.33439        -0.022823      0.056232      0.048004
O	      6.33465      6.22588      6.43444        -0.030620     -0.014872      0.088222
O	      6.35624      4.24963      8.47537        -0.056433      0.037319      0.038447
O	      8.31557      6.21136      8.40977        -0.044202      0.016772      0.018002
O	      2.06709      6.20013      6.42646        -0.118770     -0.099415      0.029855
O	      4.16836      8.41293      6.30379         0.044313      0.024267      0.017783
O	      4.19714      6.21342      8.45889         0.019795     -0.007610      0.023492
O	      6.26618      8.27778      8.50573         0.028680     -0.008733      0.007263
O	      6.26193      6.20264     10.62150         0.018747     -0.003216      0.061283
O	      8.37901      8.31487     10.68151         0.047229      0.044102     -0.179352
