# total energy = -249.62414870 eV
 
CRYSTAL
PRIMVEC
-0.043331 6.359800 6.238127 
6.422701 -0.022448 6.217174 
4.273794 4.217929 -0.006902 
PRIMCOORD
36 1
Li	      4.29788     10.48811      6.33499         0.046967      0.025213      0.063230
Li	      2.18501      6.38673      8.16358        -0.006621      0.017806      0.054881
Li	      4.28561      8.30063      8.19891        -0.038728      0.076698      0.049795
Li	      4.33061      6.38184     10.29035         0.054108     -0.005766      0.037533
Li	      0.06820      2.12995      2.03325        -0.017672     -0.052449     -0.009192
Li	      8.51615      4.12631      8.24095         0.036320      0.007347      0.019677
Li	      6.19675      8.47065      6.39940        -0.071290      0.004930      0.009975
Li	      4.20860      6.51066      6.35162        -0.051045     -0.043246     -0.032739
Li	      6.24430      6.41448      8.28770         0.035265     -0.016193     -0.031654
Sc	      2.07472      6.29676      4.18483        -0.016180      0.076848     -0.076580
Sc	      4.18658      4.39749      8.24735        -0.128762     -0.019786      0.005234
Ti	      4.28916      4.20840      3.99661         0.097567     -0.098644     -0.895023
Cr	      2.18286      2.11861      0.08018        -0.017410      0.025241      0.041981
Cr	      6.32392      8.39678     10.31985         0.004200     -0.035223      0.002155
Cr	      2.14443      2.10244      4.08190        -0.008048     -0.011659      0.006500
Cr	      6.42027      4.21849      6.28149         0.059209     -0.022354     -0.008446
Cr	      6.40306      4.23352     10.36763         0.014039      0.005951      0.023155
Fe	      8.54312      6.22894      6.36270         0.025190     -0.028116     -0.130281
O	      2.11279      2.12911      2.07185        -0.006733     -0.000721      0.091178
O	      4.26331      4.21427      2.21194        -0.041530      0.023477      0.878356
O	      4.17751      2.22349      4.22384        -0.132179      0.075353     -0.037679
O	      6.26540      4.27143      4.22520        -0.107310      0.067705      0.025738
O	      6.41954      2.16558      6.16060         0.052193      0.102003     -0.008128
O	      8.44196      4.20369      6.22111        -0.050512     -0.034433     -0.049358
O	      2.15945      4.17813      4.19202        -0.073472     -0.068996     -0.016856
O	      4.31218      6.28169      4.16210         0.061988     -0.005362      0.009782
O	      4.37815      4.10909      6.18933         0.033432      0.038335     -0.119701
O	      6.52810      6.22440      6.11506        -0.111038     -0.012761     -0.021167
O	      6.34146      4.22048      8.31038         0.092146     -0.049734      0.004035
O	      8.57023      6.35587      8.27279         0.040862     -0.023840      0.108326
O	      2.09293      6.49060      6.19487         0.015805     -0.020956     -0.001221
O	      4.13374      8.48160      6.12338         0.031011      0.010982      0.015673
O	      4.24772      6.33863      8.31248        -0.024569      0.012739      0.000556
O	      6.40605      8.45177      8.33284         0.069291     -0.000258     -0.047314
O	      6.45252      6.24369     10.37934         0.015111     -0.006986     -0.015627
O	      8.63262      8.41592     10.41817         0.118393     -0.013143      0.053206
