# total energy = -223.40917468 eV
 
CRYSTAL
PRIMVEC
-0.030650 6.317818 6.233707 
6.392701 -0.023403 6.226796 
4.250121 4.195889 -0.004270 
PRIMCOORD
36 1
Li	      6.36090      6.26026     12.40297        -0.140774      0.032711     -0.044008
Li	      4.17272      2.21067      2.03082        -0.082466      0.057590     -0.002068
Li	      4.24407      0.08614      4.20209         0.036155     -0.073894      0.111202
Li	      6.29706      2.06433      4.27935         0.014788     -0.039123     -0.107495
Li	      2.24812      4.11757      2.12188         0.047928     -0.071529     -0.188876
Li	      4.22988      4.18102      4.16045         0.028787      0.016521      0.006294
Li	      6.38989      4.11645      6.09984         0.161136     -0.033936      0.057882
Li	      4.33219      8.40070      4.25830        -0.057215      0.029323     -0.097313
Li	      2.07242      6.20459      4.24777        -0.040755      0.027085     -0.088526
Sc	      6.31357      4.13247      2.09871        -0.074556      0.268416      0.047643
Sc	      4.20797      6.23310      2.06267         0.271533     -0.005897      0.081692
Ti	      2.20894      2.14680      4.24878         0.019365     -0.172848     -0.390958
V	      4.32585      4.23843      8.39921         0.111659      0.042060      0.519389
Co	      8.56844      2.21608      6.15271        -0.148016     -1.032489      0.088336
Co	      6.38555      6.33208      8.42769        -0.042480     -0.102533      0.277179
Ni	      4.30603      2.06386      6.18892        -0.042179     -0.167633      0.022554
Ni	      4.20579      6.32636      6.14459         0.030106     -0.102340      0.039031
Ni	      2.05312      4.24997      6.19487         0.052615      0.040441      0.035978
O	      2.09444      2.07858      2.13195        -0.113701     -0.036664      0.457866
O	      4.29509      4.21953      2.05995         0.079457      0.056705      0.086416
O	      4.12834      2.09668      4.18270        -0.129843      0.064865      0.042320
O	      6.39471      4.36267      4.12674        -0.040364      0.039184      0.004060
O	      6.40914      2.07331      6.22298         0.295053      0.151455     -0.070080
O	      8.51513      4.03367      6.21734         0.105664      0.608556      0.023590
O	      2.12212      4.07871      4.16848        -0.007509      0.021449      0.062768
O	      4.38825      6.29881      4.13151         0.050013      0.038493     -0.028686
O	      4.14031      4.18238      6.41823         0.008479      0.013427     -0.082542
O	      6.38253      6.31725      6.26682        -0.037348      0.008715      0.001202
O	      6.14976      4.19910      8.27059        -0.123308      0.060454      0.019030
O	      8.48132      6.42771      8.25262        -0.008784      0.017050      0.003743
O	      2.14280      6.43813      6.20913         0.014146      0.081943     -0.008481
O	      4.18866      8.36057      6.24349        -0.309065      0.268520     -0.086254
O	      4.24343      6.11975      8.25669         0.055305      0.006144      0.058956
O	      6.49292      8.38290      8.27611        -0.030136     -0.078910     -0.021912
O	      6.36542      6.28006     10.18465         0.043578     -0.002068     -0.254591
O	      8.45561      8.38868     10.18274         0.002730     -0.031242     -0.575341
