# total energy = -225.56045746 eV
 
CRYSTAL
PRIMVEC
0.007945 6.299196 6.216525 
6.296284 0.019742 6.204632 
4.217688 4.211910 -0.006973 
PRIMCOORD
36 1
Li	      0.10783      6.36881      6.19607        -0.042504      0.076650      0.003355
Li	      8.27130      2.13987      6.21496        -0.092632      0.017316      0.024919
Li	      4.35867      8.28771      8.24043         0.014538     -0.043795     -0.012037
Li	      6.23891      2.06381      4.25965         0.018426      0.023645      0.038050
Li	      6.40716      6.23972      4.23125        -0.004553     -0.021535      0.046108
Li	      4.23049      4.28314      4.19755         0.024358      0.002894      0.026217
Li	      4.16199      2.09860      6.09071        -0.007481     -0.020459      0.007122
Li	      4.32630      6.30642      6.21408         0.050524     -0.030238      0.031521
Li	      6.22014      6.35601      8.19015        -0.002419     -0.016798     -0.061055
Sc	      2.20124      4.20851      2.02544         0.066398     -0.020316     -0.248806
Sc	      4.22774      8.41542      4.31219        -0.072231     -0.008319     -0.102387
Ti	      8.32759      8.39596      8.18559        -0.246954     -0.004249     -0.054373
V	      2.04976      0.10871      2.06265         0.110194      0.035032     -0.127908
Co	      4.21739      0.14840      4.16817         0.060824      0.352144      0.037516
Co	      6.26260      2.17371      8.25368         0.000137     -0.081822     -0.113774
Co	      6.29734      4.19880      6.16030         0.211735     -0.013847     -0.088419
Cu	      2.07354      6.32976      4.22275        -0.028801      0.008701      0.039627
Cu	      6.34652      8.29321      6.15516         0.040093     -0.125867     -0.044369
O	      1.93525      2.09577      2.13141        -0.053437      0.148901      0.023016
O	      4.25464      4.40413      2.04932        -0.084404     -0.022642      0.067953
O	      4.23472      1.93315      4.05268         0.041613     -0.056429     -0.016871
O	      6.34907      4.17480      4.01710        -0.160023     -0.067324      0.391791
O	      6.27744      2.28179      6.32448         0.035006     -0.370489      0.048032
O	      8.27691      4.17124      6.15966        -0.190002     -0.025466      0.200045
O	      2.11231      4.21524      4.14485         0.011284      0.023233     -0.064731
O	      4.05013      6.34344      4.01231         0.031284     -0.003347      0.003817
O	      4.23131      4.20916      6.28223         0.233052      0.131119     -0.033979
O	      6.31070      6.08304      6.18879        -0.076533      0.248066      0.036802
O	      6.26082      4.14115      8.22271         0.066662     -0.029128     -0.321313
O	      8.50211      6.40238      8.19662         0.071280      0.038847     -0.090184
O	      2.13034      6.42215      6.49717         0.073241      0.036630      0.075818
O	      4.36700      8.39287      6.26137        -0.115382     -0.016581      0.250930
O	      4.12979      6.17562      8.34076        -0.028005     -0.122469     -0.083074
O	      6.42933      8.46515      8.18442         0.120565      0.007411      0.085907
O	      6.35612      6.30086     10.36949        -0.044831      0.049632     -0.023969
O	      8.44689      8.50185     10.22147        -0.031022     -0.099101      0.048705
