# total energy = -140.02857401 eV
 
CRYSTAL
PRIMVEC
-2.054118 -4.142970 -2.054197 
0.022475 -2.111749 6.220573 
-6.219834 2.111533 -0.022547 
PRIMCOORD
24 1
Li	     -5.17640     -1.13670      5.16799        -0.008428     -0.009592     -0.003073
Li	     -3.11610     -0.95006      3.04193         0.019702     -0.000436      0.023500
Li	     -5.14851     -3.08178      3.14842        -0.003977     -0.009934     -0.006667
Li	     -1.06829     -1.07094      1.03000         0.010007      0.008266      0.007300
Li	     -3.08786     -3.01581      1.05884         0.001462      0.009910      0.012313
Li	     -7.18242     -1.09100     -1.02420        -0.021212      0.000321     -0.018598
Mn	     -1.00283     -3.13199      3.10514        -0.006749      0.000473      0.006428
Mn	     -3.07760     -5.20345      3.12581         0.003739     -0.002511      0.000826
Mn	     -5.17503     -3.09179     -1.01956         0.000385     -0.000383      0.001702
Ni	     -3.09658     -3.13207      5.19914         0.018136      0.001684     -0.025741
Ni	     -5.16692     -1.02059      1.02696        -0.010723      0.006129      0.001761
Ni	     -7.21053     -3.09194      1.01657        -0.016882     -0.001773      0.017056
O	     -7.35223     -2.96400      3.11094        -0.027294      0.030632      0.085165
O	     -5.15321     -3.08955      0.89097         0.113762     -0.098964     -0.043869
O	     -5.31460     -1.02920      3.10302        -0.055127     -0.104483      0.109498
O	     -3.18066     -3.09933     -1.15514        -0.010042     -0.099764     -0.035733
O	     -3.10482     -0.88834      1.01330         0.110086      0.033577      0.121725
O	     -1.01518     -3.00425      5.08358         0.103465      0.026722     -0.009810
O	     -5.03145      1.04856      1.01341         0.046687      0.098097     -0.116908
O	     -2.96314     -1.05283      5.26078         0.037426      0.099843      0.003998
O	     -5.15376     -1.15226     -1.03503        -0.122879     -0.035993     -0.112992
O	     -1.03091     -1.18859      3.23499        -0.086716     -0.026730      0.023585
O	     -2.98131     -3.25970      3.11764         0.012716     -0.023962     -0.101906
O	     -7.24333     -1.01151      1.17439        -0.107544      0.098872      0.060439
