# total energy = -224.45266310 eV
 
CRYSTAL
PRIMVEC
0.025968 6.430051 6.359458 
6.428665 0.012974 6.372045 
4.267787 4.277456 0.026330 
PRIMCOORD
36 1
Li	      6.21825      0.26802      6.27040         0.011933     -0.033514     -0.011811
Li	      8.44359      2.23077      6.30900        -0.035229      0.064854     -0.067753
Li	      6.35976      4.35436      2.18985        -0.008651     -0.092508     -0.020017
Li	      8.76452     10.53672     10.83638         0.135335     -0.194697     -0.023161
Li	      6.53838      8.48482     10.79734         0.038208     -0.011322      0.013488
Li	      6.49319      2.13809      8.37647        -0.000120     -0.006803     -0.013712
Li	      8.53516      4.32016      8.41750         0.021348      0.012814     -0.028168
Li	      8.77539      6.23075      6.47744         0.020393     -0.005308      0.105429
Li	      6.35325      4.40199     10.47496        -0.043656      0.056630      0.012542
Sc	      4.20168      2.14848      2.17166         0.303056      0.012906     -0.046667
Sc	      6.58314      4.16251      6.45182         0.168281     -0.093947      0.008152
Ti	      4.37934      4.24874      4.19518        -0.085993     -0.256906     -0.454514
V	      4.16554      6.50801      6.34300         0.090201      0.065567      0.171826
Fe	      8.42306      6.54929     10.50608         0.100333     -0.257410      0.233164
Co	      2.20666      4.23763      6.34708        -0.060132      0.236676     -0.016182
Cu	      2.14936      2.16059      4.20150         0.032915      0.044938      0.148538
Ni	      6.48787      6.38567      8.54660        -0.173162      0.265762     -0.192467
Ni	      8.60037      8.52804      8.55882        -0.247179      0.137840     -0.132232
O	      2.20647      2.11938      2.28108        -0.171919     -0.005272     -0.155801
O	      4.29505      4.23499      2.32042        -0.057592      0.051914      0.355602
O	      4.27478      2.33902      4.24141         0.092188      0.135779      0.156970
O	      6.24850      4.30081      4.29909        -0.127141      0.016925      0.059488
O	      6.44994      2.19499      6.41533         0.014167      0.054743     -0.026005
O	      8.54818      4.27955      6.38920        -0.070566     -0.009319      0.039802
O	      2.27085      4.42710      4.45525         0.090125     -0.071444      0.074046
O	      4.22122      6.33303      4.45485         0.011063      0.032278     -0.138823
O	      4.28208      4.46721      6.33175        -0.701657     -0.227252      0.030177
O	      6.22719      6.47272      6.24238         0.239201      0.543159      0.066288
O	      6.37293      4.38214      8.47309         0.164668     -0.205825     -0.021678
O	      8.53358      6.46621      8.56760         0.106212     -0.144697     -0.094796
O	      2.36286      6.38224      6.35640        -0.367211     -0.509982      0.006384
O	      4.31036      8.32925      6.39470         0.639018      0.258384     -0.173662
O	      4.34243      6.41378      8.24192        -0.064614      0.009525      0.001342
O	      6.42558      8.50285      8.26166         0.086062     -0.133494     -0.155981
O	      6.50297      6.43449     10.60016        -0.156311      0.061135      0.109921
O	      8.57619      8.46438     10.58713         0.006425      0.197869      0.180272
