# total energy = -93.43785256 eV
 
CRYSTAL
PRIMVEC
2.051732 4.111629 2.051648 
-2.095805 4.155574 -2.095541 
-4.150434 0.000122 4.150063 
PRIMCOORD
16 1
Li	     -3.17410      5.17641      1.04440         0.000560     -0.000032      0.000052
Li	     -3.17813      7.23319      3.09834        -0.001677     -0.000423      0.006116
Li	     -5.18883      5.17784      3.06413         0.001602     -0.000728     -0.006700
Li	     -1.04275      7.23437      0.96637        -0.000472     -0.001337      0.001178
Mn	     -1.07846      5.15570      3.09647         0.013154      0.003614     -0.009376
Mn	     -1.04270      3.09959      1.01015        -0.014400     -0.000802      0.007705
Ni	     -3.14387      3.09961      3.11070         0.023094     -0.000298     -0.026039
Ni	     -3.12718      5.15534      5.14623        -0.028275      0.002132      0.026734
O	     -1.15783      1.16025      1.02893        -0.010435      0.008656      0.100958
O	     -1.05959      3.21636      2.98228         0.103176      0.008049     -0.011333
O	     -3.12523      1.02046      2.96055         0.107043     -0.105897     -0.032904
O	      0.87321      3.07576      1.01512        -0.033322     -0.103697      0.104780
O	     -2.99435      5.17893      3.09183         0.034325      0.107576     -0.106634
O	     -1.04753      3.12305     -0.90561        -0.104876      0.106334      0.033343
O	     -1.06151      5.03911      1.12412        -0.101484     -0.010629      0.012768
O	     -3.01518      2.98372      1.02604         0.011987     -0.012517     -0.100648
