# total energy = -254.16421521 eV
 
CRYSTAL
PRIMVEC
-0.018955 6.465441 6.255514 
6.322770 0.020748 6.217051 
4.223308 4.292324 0.005301 
PRIMCOORD
36 1
Li	     10.49760      4.36137      6.27514        -0.044805      0.049742     -0.005505
Li	      8.34892      2.25047      6.27054        -0.022619      0.008639     -0.001882
Li	      6.34347      2.16567      4.22595        -0.023316     -0.006719      0.040972
Li	      6.34741      2.21824      8.27966        -0.012823      0.058228      0.030732
Li	      2.22274      4.14250      2.07309         0.071438     -0.073636     -0.010976
Li	      2.12589      2.21854      4.08724         0.057112     -0.009546     -0.009292
Li	      4.13515      4.29344      4.09305        -0.005512     -0.035376     -0.033892
Li	      2.06608      4.32383      6.21037         0.013797      0.025020     -0.027454
Li	      6.31446      6.48831      8.33237         0.004662     -0.020869      0.012067
Sc	      6.23098      4.38446      2.17700        -0.047461      0.029238      0.002657
Sc	      4.23226      2.12992      6.16489         0.014111     -0.005694     -0.064385
Ti	      8.32131      6.37246     10.38454        -0.190223     -0.189985      0.010582
Ti	      4.25578      6.46571      6.18224         0.044275      0.101388     -0.064141
Ti	      8.36897      8.62300      8.35118         0.056628     -0.015924      0.194765
Cr	      4.22191      8.62661      8.33710        -0.004509      0.032773      0.065643
Cr	      6.33126      4.27450      6.20824         0.062150     -0.020115      0.034000
Fe	      0.03490      4.34055      4.16608        -0.012541      0.010087     -0.031516
Co	      8.47648     10.74195     10.44824        -0.017513     -0.033869     -0.003769
O	      2.23762      2.10555      2.09000        -0.014906      0.067182     -0.061954
O	      4.25412      4.14726      2.04901        -0.022554     -0.016698     -0.032971
O	      4.24034      2.11855      4.10051         0.027196     -0.031238      0.026621
O	      6.37571      4.29286      4.20537        -0.039080     -0.028450      0.063598
O	      6.25528      2.27384      6.27165         0.031691      0.016221      0.014729
O	      8.34071      4.36683      6.26496        -0.046796     -0.053212      0.011446
O	      2.12489      4.47327      4.13095         0.039211      0.328868     -0.017055
O	      4.08375      6.47962      4.23732        -0.014835     -0.108654      0.123610
O	      4.26883      4.32142      6.25348        -0.085850      0.095226     -0.055754
O	      6.24145      6.34607      6.20875        -0.213262      0.096271      0.048968
O	      6.12085      4.34742      8.27286        -0.075550      0.086474     -0.032009
O	      8.38166      6.60575      8.37994        -0.102108      0.077871      0.078321
O	      2.24460      6.42824      6.18306         0.086035     -0.020048     -0.079868
O	      4.26156      8.44582      6.28854         0.103540     -0.213104     -0.017031
O	      4.18831      6.49765      8.26516         0.108426     -0.046156     -0.011678
O	      6.38343      8.68823      8.29200         0.056320     -0.108513     -0.022120
O	      6.40492      6.50207     10.46113         0.330718      0.005154     -0.076592
O	      8.43469      8.56043     10.33888        -0.111043     -0.050578     -0.098866
