# total energy = -247.46040963 eV
 
CRYSTAL
PRIMVEC
0.014946 6.346396 6.343237 
6.517411 0.046865 6.310727 
4.353898 4.218353 0.021822 
PRIMCOORD
36 1
Li	      6.51066      4.20648      2.14795         0.001754      0.024825     -0.023605
Li	      8.65254      4.22865      4.23559        -0.011222      0.009218     -0.049039
Li	      6.43078      2.33425      8.44706         0.030852      0.038014     -0.052950
Li	      2.14134      4.22147      2.16365         0.019657     -0.032178     -0.001736
Li	      6.47023      6.39138      4.35234        -0.034584     -0.013226     -0.050357
Li	      6.47032      4.39962      6.39046        -0.048832     -0.099667      0.012840
Li	      0.11022      4.16813      4.08838         0.016218     -0.021115      0.079956
Li	      6.54057      8.35355      6.34906         0.006148      0.114249      0.025648
Li	      4.53565      6.35766      6.33067        -0.102450      0.032680     -0.010037
Sc	      8.68153      2.19796      6.29936         0.030536     -0.014879      0.010349
Sc	      2.23468      6.25683      4.18354         0.043609      0.028866      0.036567
Ti	      4.32522      4.26075      0.14120        -0.015105     -0.101822      0.164881
Ti	      4.24766      8.32735      8.46886        -0.193549     -0.203872     -0.007780
Ti	      4.40799      4.28444      4.46378        -0.052859      0.170108      0.240925
Mn	      6.56113      6.31887      8.36980        -0.034712     -0.012529      0.171555
Cr	      6.51991      8.48914     10.51995         0.102519     -0.024933     -0.003693
Cu	      8.49751      6.28387      6.40069        -0.085637     -0.078712     -0.008492
Ni	      4.39644      4.31651      8.39618        -0.039851      0.092189     -0.035931
O	      2.36698      2.12307      2.07507         0.179933     -0.015379      0.022111
O	      4.39398      4.12452      2.00364        -0.022962     -0.001484     -0.093886
O	      4.47260      2.21691      4.04451         0.004165     -0.023238     -0.038310
O	      6.34189      4.12893      4.23497        -0.067122      0.076307      0.028641
O	      6.62141      2.06291      6.23604        -0.002292      0.007958     -0.006592
O	      8.92198      4.23447      6.26233         0.048259      0.106562      0.001338
O	      2.42662      4.22038      4.21856         0.055720     -0.016427      0.029113
O	      4.35160      6.20037      4.23736         0.005973     -0.095483      0.026314
O	      4.35472      4.30240      6.29659         0.048003     -0.061845     -0.358171
O	      6.45194      6.38060      6.46296         0.137871     -0.043687     -0.114941
O	      6.49136      4.40013      8.44606         0.073403     -0.085657     -0.055969
O	      8.76778      6.48113      8.50121         0.004038     -0.148234     -0.091401
O	      1.99304      6.39952      6.29144        -0.046218     -0.029804     -0.003076
O	      4.32604      8.55721      6.44678         0.026958     -0.000986      0.048764
O	      4.28903      6.45144      8.45928         0.006020      0.262730     -0.024961
O	      6.47475      8.34710      8.51017        -0.047173      0.090231      0.016270
O	      6.58877      6.42199     10.53209         0.022659      0.053222      0.040329
O	      8.58220      8.49333     10.53535        -0.059726      0.018002      0.075326
