# total energy = -247.05274579 eV
 
CRYSTAL
PRIMVEC
0.023901 6.253848 6.366316 
6.355789 0.026917 6.363897 
4.260667 4.191698 -0.006005 
PRIMCOORD
36 1
Li	      0.06828      6.26531      6.38348        -0.013990      0.013283     -0.004870
Li	      2.10598      0.05942      2.09922        -0.028479      0.025872      0.014965
Li	      4.30758      6.21880      2.13417         0.001781     -0.012307     -0.008956
Li	      6.30789      6.25232      4.26373         0.030099     -0.057531      0.049913
Li	      6.37646      4.24545      6.38600        -0.005491      0.009208     -0.033567
Li	      8.49194      6.27842     10.48499        -0.009139      0.001205     -0.097581
Li	      4.32893      6.22561      6.45129         0.058631     -0.015305      0.046308
Li	      4.30227      4.24860      8.46632         0.084074      0.015681      0.012733
Li	      6.35848      6.25923      8.45132        -0.021030     -0.003251      0.005806
Sc	      4.16577      8.31276      8.41542        -0.050941     -0.001853      0.033772
Sc	      8.47511      6.23852      6.51397         0.079352     -0.062275     -0.020990
Ti	      6.50078      8.27083     10.64043        -0.004449     -0.107152      0.193027
Ti	      4.33752      8.18782      4.15879        -0.017430     -0.226518     -0.318745
Ti	      2.18299      4.29284      6.46768         0.060243      0.275928      0.070849
Mn	      8.43426      4.19338      4.20558         0.028144      0.042948      0.023190
Cr	      4.29037      4.25766      4.20778        -0.032137      0.019462      0.011933
Ni	      2.09238      2.03529      0.03276         0.029922     -0.040732     -0.029214
Ni	      8.49114      4.22623      8.47203        -0.036171     -0.025210     -0.008872
O	      2.12093      2.14284      2.05576        -0.000095     -0.107714      0.139077
O	      4.20051      4.18724      2.24611         0.090162     -0.000291     -0.012356
O	      4.40483      2.21085      4.20616         0.002074      0.077558      0.018477
O	      6.27796      4.08094      4.22964        -0.098536     -0.035325      0.004892
O	      6.37277      2.09069      6.16888        -0.092609     -0.003388     -0.199125
O	      8.44964      4.16926      6.35935        -0.011737      0.118060     -0.014296
O	      2.04707      4.19452      4.32181         0.003816     -0.013246      0.068641
O	      4.29433      6.33216      4.25534        -0.021844      0.237222     -0.001977
O	      4.14564      4.19775      6.26524        -0.076760      0.028099      0.021794
O	      6.45221      6.45821      6.33517        -0.062819      0.019649      0.028029
O	      6.38811      4.20789      8.70662        -0.088909     -0.022972      0.331886
O	      8.54204      6.26782      8.45458        -0.016113      0.130327      0.034779
O	      2.13273      6.16709      6.37973         0.029815     -0.292075     -0.008856
O	      4.35689      8.39077      6.27953         0.078502     -0.005720     -0.009819
O	      4.24431      6.31535      8.52158         0.021688      0.002120     -0.152093
O	      6.37158      8.38699      8.41399         0.004926      0.000124     -0.090597
O	      6.37126      6.38430     10.58444         0.094540      0.113407      0.008117
O	      8.51002      8.32013     10.64995        -0.009089     -0.097288     -0.106273
