# total energy = -231.47680716 eV
 
CRYSTAL
PRIMVEC
0.047053 6.338918 6.316636 
6.501597 0.028060 6.334740 
4.312289 4.216103 0.040819 
PRIMCOORD
36 1
Li	      2.23311      8.39054      6.35842         0.028211      0.008484      0.019971
Li	      6.56781     10.41056      8.57718         0.045287      0.004907     -0.023352
Li	      4.52961      8.41834      8.55004         0.002176      0.005869      0.084270
Li	      4.35507      6.29301     10.34291        -0.012289     -0.015460      0.026524
Li	      6.41181      2.24978      4.06221        -0.061820      0.018070      0.089564
Li	      0.09589      2.07225      2.10799         0.036967     -0.034910      0.010018
Li	      4.48681      4.17603      4.19029         0.049639      0.018573     -0.026661
Li	      6.48565      8.48116      6.57096        -0.061853      0.042859     -0.008757
Li	      8.45370      8.58135      8.52175        -0.073243      0.022109     -0.010650
Sc	      6.54117      4.17142      6.27437         0.076290     -0.087085      0.058625
Sc	      8.64686      6.42960     10.52516        -0.014423      0.017364     -0.026902
Sc	      4.27264      6.36588      6.46376        -0.048749      0.024166     -0.071642
Mn	     10.80404      8.47652     10.56005        -0.044462      0.031291     -0.015383
V	      2.29835      4.11819      2.13294         0.061579      0.022713     -0.095969
V	      4.38441      2.18818      6.25231         0.056581     -0.048019      0.215114
Cu	      2.18470      2.05144      4.12800         0.125435     -0.012153      0.011319
Ni	      0.08647      6.32740      6.33564        -0.015255      0.022268      0.022611
Ni	      6.45785      6.46015      8.46075         0.052231     -0.071506      0.011384
O	      6.50376      8.42680      8.50447        -0.037455      0.183819      0.009099
O	      2.14915      2.24780      2.17486        -0.015976     -0.033571     -0.051235
O	      4.10655      4.22702      2.16049        -0.013564     -0.049508      0.099363
O	      4.38015      2.13271      4.49759         0.060898      0.008244     -0.239847
O	      6.49848      4.28872      4.27558         0.038360     -0.109964     -0.009664
O	      6.37876      2.10231      6.36893         0.029941      0.124916      0.014730
O	      8.66168      4.31807      6.48625        -0.070703     -0.043302     -0.002993
O	      2.01447      4.20999      4.12399        -0.094576      0.042700      0.048336
O	      4.23045      6.49779      4.24971        -0.113183      0.027645     -0.040069
O	      4.43650      4.18230      6.36375         0.007167      0.091364     -0.000961
O	      6.55247      6.30981      6.31426        -0.024688      0.066273      0.051455
O	      6.71306      4.30648      8.52826        -0.006590     -0.073859      0.018758
O	      8.61424      6.25675      8.35083         0.019926     -0.039495      0.053972
O	      2.19324      6.34692      6.27091         0.123597     -0.005080     -0.012431
O	      4.34651      8.46289      6.15213        -0.037445     -0.122668     -0.080939
O	      4.40774      6.39462      8.40516        -0.112068     -0.005940     -0.028204
O	      6.55299      6.19988     10.57477         0.003179     -0.041129     -0.069847
O	      8.89712      8.46454     10.52097         0.040879      0.010015     -0.029609
