# total energy = -231.30219214 eV
 
CRYSTAL
PRIMVEC
-0.033691 6.437164 6.322231 
6.347066 0.021120 6.266753 
4.254696 4.278017 -0.008803 
PRIMCOORD
36 1
Li	      0.02178      6.36106      6.22718        -0.034789     -0.025279      0.012226
Li	      4.12638      2.19134      1.97120         0.008597     -0.024792     -0.089094
Li	      0.02274      2.18946      2.12352        -0.009313      0.012255      0.049726
Li	      2.03534      4.09943      2.04885        -0.072551     -0.026728      0.021516
Li	      6.29059      6.44345      4.18515        -0.062383     -0.005562      0.067112
Li	      6.36397      4.31970      6.20630         0.019824      0.038868      0.012777
Li	      2.08302      6.40573      4.33103         0.073901     -0.077135     -0.000003
Li	      6.21060      8.71044      6.30414        -0.057676     -0.012290     -0.020863
Li	      4.14397      6.47241      6.28321         0.011093      0.014457     -0.018124
Sc	      2.09072      8.49374      6.38155        -0.046302      0.018785     -0.076621
Sc	      4.17802      0.10554      4.18250        -0.061024      0.045080     -0.025873
Sc	      6.44233      6.48638      8.36246        -0.005992     -0.070193     -0.102999
Mn	      8.53803      6.38792      6.30470        -0.152165      0.064957      0.072258
V	      4.01047      4.33118      3.99181        -0.124689     -0.036750      0.080619
V	      4.32008      4.35129      8.28116         0.180418      0.012970     -0.082047
Cu	      2.04347      6.46173      8.34421        -0.053433      0.155645     -0.091361
Cu	      6.36197      2.18559      4.18611         0.015191     -0.041388      0.052916
Cu	      4.29396      8.55299      4.28818         0.198564     -0.024689     -0.059285
O	      2.23529      4.28903      4.24337        -0.015616     -0.031537      0.051258
O	      2.08528      2.05135      2.06359         0.005159     -0.047562      0.070046
O	      4.06548      4.22779      2.27596        -0.064273     -0.066040     -0.183068
O	      4.12336      2.31153      4.29013         0.039656     -0.105799     -0.007626
O	      6.25253      4.18183      4.07432         0.063810      0.091737      0.014907
O	      6.23527      2.17239      6.21143         0.212871      0.002270      0.101671
O	      8.43574      4.22834      6.19627         0.007255     -0.075261     -0.008268
O	      4.26276      6.04261      4.26656         0.013531      0.087247     -0.000999
O	      4.29632      4.34880      6.49079         0.087809      0.044221      0.004958
O	      6.61399      6.39856      6.34301        -0.013386     -0.000963      0.038061
O	      6.31078      4.35366      8.57378        -0.003580      0.011054     -0.127469
O	      8.53446      6.59940      8.32883         0.050938      0.082552     -0.013579
O	      2.04338      6.45754      6.37496        -0.024552     -0.076564     -0.101311
O	      4.18439      8.52363      6.22101        -0.035013      0.003566      0.173042
O	      4.36240      6.34930      8.41416         0.158434      0.126309      0.012808
O	      6.55962      8.65230      8.44655        -0.112019     -0.024815      0.059809
O	      6.26747      6.65490     10.46211         0.086216     -0.005254      0.066673
O	      8.61076      8.65873     10.36733        -0.284511     -0.033374      0.046208
