# total energy = -242.22278985 eV
 
CRYSTAL
PRIMVEC
0.004595 6.388627 6.345640 
6.324144 0.024478 6.325501 
4.241961 4.271322 -0.009089 
PRIMCOORD
36 1
Li	      2.26193      8.47606      6.43979        -0.040104      0.001710      0.048600
Li	      2.14550      6.49675      8.34371        -0.014882      0.013226     -0.009838
Li	      4.19792      8.45194      8.32228        -0.018392      0.028114      0.033985
Li	      4.30969      6.33617     10.53316         0.000130     -0.061786     -0.023897
Li	      2.16526      4.22218      2.11807         0.021099     -0.018977      0.014821
Li	      8.50103      6.35386      6.30373         0.004960     -0.039372      0.002015
Li	     10.47892      8.61484     10.67946        -0.078693      0.004030     -0.020447
Li	      6.16840      8.62121      6.34083        -0.017786      0.021743      0.053048
Li	      4.18264      6.57086      6.37313        -0.000051      0.081770     -0.001137
Sc	      2.11775      2.19049      4.18684         0.004354      0.002127     -0.055126
Sc	      6.54972      4.18908      6.35393         0.077309      0.033617      0.046777
Sc	      4.15959      4.33279      8.34709        -0.010677      0.059849      0.037761
Mn	      4.19708      4.20135      0.02702         0.031946     -0.060548      0.003679
V	      4.20615      4.26356      4.23379        -0.017229      0.008743     -0.082345
V	      6.31388      6.40498      8.35766        -0.037276     -0.008163      0.014958
Fe	      6.31045      8.51910     10.50845        -0.043013      0.047033     -0.024175
Fe	      2.13059      6.40737      4.30792         0.003294     -0.037002     -0.031950
Co	      4.25496      6.38428      2.10560         0.086005     -0.010037      0.050411
O	      2.03918      2.13989      2.19731        -0.060626      0.019736      0.099265
O	      4.24118      4.33371      2.37572        -0.018988      0.006901      0.119574
O	      4.24549      2.28340      4.22584        -0.028769     -0.019252     -0.030126
O	      6.28328      4.24348      4.25697        -0.009744      0.034832      0.033634
O	      6.31083      2.04389      6.23871         0.000407      0.052096      0.046293
O	      8.56099      4.27207      6.31439        -0.064174      0.014212      0.000203
O	      2.23363      4.29606      4.27371         0.042211     -0.000253      0.004011
O	      4.18732      6.33084      4.30079         0.054391     -0.016211     -0.034650
O	      4.32829      4.25736      6.20123         0.022974     -0.036751     -0.067418
O	      6.41309      6.31996      6.35753         0.017320     -0.047855     -0.047387
O	      6.28945      4.27929      8.40698        -0.024184     -0.091107     -0.075862
O	      8.41473      6.44210      8.52104         0.057099     -0.003031      0.012822
O	      1.94735      6.38622      6.25938        -0.008985      0.017107      0.056985
O	      4.21361      8.69493      6.33259         0.019891      0.018560     -0.000641
O	      4.32469      6.37527      8.41449         0.008706     -0.054075     -0.014083
O	      6.34235      8.50132      8.49713         0.030468      0.025177     -0.066441
O	      6.37555      6.47649     10.42319        -0.012880     -0.024978     -0.007940
O	      8.35203      8.47050     10.47322         0.023888      0.038813     -0.085377
