# total energy = -139.62920774 eV
 
CRYSTAL
PRIMVEC
2.096141 -4.170806 2.097883 
4.129423 0.000654 -4.131776 
4.142450 6.221290 2.077910 
PRIMCOORD
24 1
Li	      5.02056      0.99426     -3.16173         0.016203      0.006482     -0.006429
Li	      3.03116      0.99520     -1.17445        -0.007957      0.003299      0.017107
Li	      3.13023      3.12968      1.06944        -0.008772     -0.008747     -0.002655
Li	      5.22605      3.08997     -0.96917         0.011496      0.004024      0.005539
Li	      5.23963      5.17281      1.12306        -0.013199     -0.011933     -0.013935
Li	      7.32205      5.27724     -0.94454         0.013885      0.020326      0.008368
Mn	      5.19354      1.03196      1.05793        -0.008018      0.000939     -0.002805
Mn	      3.09850     -1.06248      1.03523        -0.001881      0.010910     -0.000676
Mn	      7.25456      1.03372     -0.99892        -0.002779      0.012347     -0.004882
Ni	      5.19458      3.10938      3.15079         0.002896     -0.005452     -0.027594
Ni	      5.17296     -1.09563     -1.02070         0.004227      0.038655      0.002653
Ni	      7.27796      3.10808      1.06692        -0.031006     -0.020998     -0.000369
O	      5.08776      1.01288      3.01323        -0.011778     -0.110443     -0.020172
O	      7.13511      0.97869      0.94844        -0.019516     -0.097618     -0.010818
O	      3.12490     -2.94550      1.06066         0.107928      0.046146      0.104037
O	      5.16148     -3.12482     -1.02894         0.126806     -0.134743      0.128031
O	      5.06364     -0.92672      1.04316        -0.014329      0.018513      0.115442
O	      7.23834     -0.92320     -1.13049         0.114434      0.014770     -0.015318
O	      5.30904      1.01994     -0.89009         0.015745      0.086179      0.018298
O	      3.22402      0.95519      1.16391         0.008085     -0.001654      0.006587
O	      7.26050      2.93541     -1.00165        -0.112637     -0.055714     -0.109793
O	      5.20065      2.92950      1.07551        -0.102807     -0.050118     -0.104637
O	      5.30516     -1.03152     -3.08410         0.028469      0.120422     -0.114943
O	      3.10791     -1.03280     -0.88749        -0.115496      0.114408      0.028967
