# total energy = -241.56897374 eV
 
CRYSTAL
PRIMVEC
0.015426 6.491126 6.211709 
6.462674 0.005655 6.220940 
4.323468 4.348566 -0.010662 
PRIMCOORD
36 1
Li	      4.37827     10.64037      6.19758         0.008280     -0.022735      0.020125
Li	      2.38974      8.68117      6.24178         0.045211      0.005956      0.001388
Li	      2.39500      6.43737      8.24613        -0.003862      0.018994      0.004756
Li	      4.23472      8.57524      8.25375        -0.047746     -0.029210      0.009631
Li	      2.03644      2.30246      4.12940        -0.052377      0.024942     -0.007425
Li	      4.27496      4.33950      4.11293        -0.018273     -0.008633     -0.016762
Li	      4.37682      8.55195      4.23151         0.002631     -0.017744      0.022084
Li	      4.30260      6.60894      6.21916        -0.003687     -0.005051      0.009505
Li	      6.37002      6.54502      8.31716         0.032376     -0.003695      0.006291
Sc	      0.08945      2.11380      2.05871         0.109490      0.064098     -0.035739
Sc	      6.36527      4.51949      6.12906         0.007558     -0.004093      0.002195
Sc	      2.18992      6.51279      4.24739         0.001326      0.017758      0.071046
Mn	      4.37460      6.45716     10.34741         0.016883      0.037310      0.012063
Mn	      4.23706      2.23993      6.17883         0.002986     -0.016170     -0.063192
V	      2.23264      4.28132      2.09033        -0.176330     -0.077471     -0.011471
V	      6.44391      8.66174     10.29856         0.017397     -0.012512      0.046303
Fe	      6.32383      8.67024      6.30490         0.137951     -0.071468     -0.010065
Ni	      4.32052      4.39532      8.31102         0.137260     -0.091699      0.025985
O	      2.12843      2.34469      2.06324        -0.044227      0.033481     -0.006209
O	      4.03753      4.39175      1.99895         0.086332      0.024971     -0.007800
O	      4.50944      2.12231      4.06863        -0.014063     -0.018146     -0.050703
O	      6.51171      4.20217      4.10027         0.042368      0.037648      0.017860
O	      6.46813      2.30508      6.06102         0.031923      0.023515     -0.015765
O	      8.55101      4.38745      6.17290        -0.023715     -0.028179     -0.066411
O	      2.14711      4.36691      4.06056        -0.037114      0.036649      0.010915
O	      4.25399      6.50214      4.04980        -0.005457     -0.005768     -0.005786
O	      4.29132      4.35012      6.28143        -0.047382      0.045639     -0.113512
O	      6.43740      6.58434      6.17882        -0.034892      0.011632     -0.017311
O	      6.63687      4.28269      8.22653        -0.009492     -0.012109     -0.021699
O	      8.69005      6.41135      8.31449         0.019247     -0.029922      0.001496
O	      2.16335      6.31459      6.25507         0.005739      0.034879      0.016284
O	      4.44096      8.64082      6.23728        -0.135374      0.001190     -0.006089
O	      4.38096      6.41174      8.46536         0.018216      0.083393      0.085164
O	      6.58139      8.65144      8.38382        -0.082709     -0.016850      0.001271
O	      6.48198      6.69450     10.39708         0.004353     -0.014840     -0.011440
O	      8.55388      8.65189     10.35318         0.009174     -0.015757      0.103019
