# total energy = -246.85276610 eV
 
CRYSTAL
PRIMVEC
-0.004867 6.506155 6.326995 
6.500904 0.018941 6.303129 
4.327407 4.315184 0.019049 
PRIMCOORD
36 1
Li	      4.39874      6.59375     10.39213         0.033756     -0.021466      0.022006
Li	      6.36654      2.17423      4.14842         0.029909      0.000984      0.001498
Li	      2.35370      2.10148      4.23372         0.047291     -0.052276     -0.010389
Li	      4.41564      4.15503      4.29195         0.018351      0.019840     -0.014157
Li	      4.25772      2.25619      6.20689        -0.012317     -0.009337      0.030617
Li	      6.39861      4.44412     10.42834        -0.050559      0.024656     -0.018492
Li	      6.52805      8.58895      6.45868         0.003049     -0.026901     -0.016302
Li	      8.58473      8.76697      8.48625         0.003551      0.006217      0.043706
Li	      6.43038      6.54385      8.47373         0.008643     -0.024085      0.031067
Sc	      8.66847      8.75769     12.56325        -0.026634      0.016197     -0.029064
Sc	      8.56394      6.57155     10.50785        -0.137342      0.016095      0.035104
Sc	      4.44984      6.43885      6.29523         0.020151      0.041367     -0.002859
Mn	      6.55948     10.75021      8.56619        -0.049331      0.022003     -0.059988
Mn	      4.40130      8.61996      8.52838        -0.021985      0.026630     -0.019185
Mn	      6.47106      4.36237      6.22649         0.063266     -0.044145      0.073142
V	      4.29572      6.51549      2.21751         0.027637     -0.033018     -0.035838
V	      2.11066      4.35206      2.25630         0.055776     -0.021002     -0.104411
Fe	      6.42429      0.04600      6.22084        -0.015569      0.046176      0.072866
O	      2.16858      2.23556      2.12650        -0.000801     -0.025026     -0.030883
O	      4.17846      4.46362      1.98595        -0.016210      0.012361      0.184186
O	      4.34633      2.17345      4.05304         0.000131     -0.030643     -0.034889
O	      6.50568      4.29827      4.13745         0.011042      0.010943     -0.086304
O	      6.54580      2.32890      6.40811         0.014644      0.089571      0.053581
O	      8.53592      4.32467      6.46448        -0.098143     -0.029173      0.053678
O	      2.18246      4.35772      4.03979        -0.000962     -0.029999      0.058790
O	      4.22442      6.49411      4.18944         0.031014     -0.009119      0.007124
O	      4.51703      4.36677      6.31560         0.010063      0.030799     -0.009760
O	      6.48362      6.32788      6.28671        -0.022264      0.001188     -0.007990
O	      6.66348      4.21662      8.43356         0.021599     -0.000883      0.008052
O	      8.69511      6.33934      8.45568         0.009437     -0.001450      0.057381
O	      2.20922      6.56249      6.39612         0.052410     -0.006870      0.031929
O	      4.29089      8.62514      6.50617        -0.000972     -0.071525     -0.006353
O	      4.32422      6.50470      8.38764        -0.019315      0.018916     -0.069990
O	      6.38163      8.76362      8.43392        -0.004148      0.043738      0.011999
O	      6.52996      6.47854     10.61107         0.038803      0.007262     -0.250779
O	      8.69265      8.59237     10.57235        -0.023967      0.001975      0.030906
