# total energy = -226.65692607 eV
 
CRYSTAL
PRIMVEC
-0.024940 6.292834 6.329299 
6.315358 -0.026094 6.330699 
4.201286 4.187064 -0.008394 
PRIMCOORD
36 1
Li	      4.24962     10.34843      6.36884         0.048659     -0.118128      0.016892
Li	      2.10874      8.31341      6.40562         0.091179     -0.062589     -0.009447
Li	      4.18407      8.37898      8.30678         0.002579      0.016409     -0.038551
Li	      6.36895      2.06811      8.29608         0.022083     -0.025114      0.086707
Li	      4.20640      4.17808      4.10124        -0.016031      0.058983     -0.018591
Li	      4.15278      8.34491      4.36352        -0.005961     -0.019502      0.048430
Li	      6.09407      8.39832      6.53009        -0.048887      0.080218      0.035961
Li	      4.13373      4.25891      8.44029         0.035633     -0.008090      0.017119
Li	      6.35162      6.18149      8.40755         0.028168     -0.060681      0.055056
Sc	      4.25796      6.19388     10.50766         0.103150     -0.083315     -0.172512
Sc	      6.21875      6.31349      4.20934        -0.222178      0.074434     -0.223383
Sc	      4.27383      2.24399      6.39965        -0.297136      0.035344      0.080388
Sc	      2.08373      6.30432      4.24230         0.117324      0.002782      0.141877
Fe	      2.12542      4.14747      2.04520         0.266381     -0.048147      0.024365
Co	      6.21720      4.15407      2.03747         0.025772     -0.096322      0.103238
Co	      6.33597      4.21242      6.36141        -0.007073     -0.192955     -0.205857
Ni	      6.28597      2.09894      4.18488         0.011851     -0.080236     -0.205858
Ni	      4.17552      6.28684      6.40089        -0.288762     -0.116939      0.017258
O	      4.17144      8.16517      6.32950         0.055050      0.482679      0.031330
O	      2.05889      2.02175      2.13458         0.007867      0.116651      0.014072
O	      4.27869      4.19023      2.02880        -0.067684      0.017406      0.015323
O	      4.15249      2.03983      4.31860        -0.037038      0.014814      0.025670
O	      6.29974      4.18774      4.14034         0.010810      0.089809      0.188151
O	      6.31245      2.29035      6.24957         0.084626      0.118808      0.092466
O	      8.33587      4.21223      6.33121         0.715867      0.186283     -0.067831
O	      2.09631      4.17608      4.03345        -0.007717     -0.058262      0.058555
O	      4.16661      6.26802      4.40504         0.062957     -0.015029     -0.324208
O	      4.40041      4.30264      6.40726        -0.640224     -0.352856     -0.107149
O	      6.32986      6.21440      6.35868         0.254370      0.036231      0.007186
O	      6.46950      4.16553      8.22620        -0.028313     -0.047816      0.466006
O	      8.46792      6.17774      8.46174        -0.030000     -0.045990     -0.126024
O	      2.07266      6.21894      6.44904        -0.126566      0.021877     -0.338948
O	      3.95686      6.30303      8.39720        -0.073415     -0.008907      0.337229
O	      6.24226      8.60953      8.48796        -0.020349      0.055229     -0.029463
O	      6.28825      6.29526     10.53783        -0.034353     -0.017192     -0.049693
O	      8.37108      8.34250     10.48677         0.007359      0.050110      0.054237
