# total energy = -224.95539323 eV
 
CRYSTAL
PRIMVEC
-0.038419 6.259544 6.359775 
6.448802 -0.070960 6.393583 
4.269611 4.166339 -0.018215 
PRIMCOORD
36 1
Li	      6.36367      3.99507      2.27325        -0.069683     -0.000645     -0.019540
Li	      4.26770      2.16601      2.25849        -0.024442      0.024016     -0.020773
Li	      6.29696      1.99394      4.21763         0.035728      0.033473     -0.010073
Li	      4.30256      6.19487      2.18873         0.090341     -0.005637      0.002973
Li	      2.26646      2.02524      4.11401        -0.039273      0.052314     -0.048035
Li	      4.19395      4.20704      4.10866         0.017437      0.019192      0.020256
Li	      4.26470      2.06749      6.24619        -0.025043      0.026171     -0.004681
Li	      2.25391      6.19056      4.20085        -0.004696      0.011328      0.018187
Li	      6.42677      8.26232      6.49168        -0.003663      0.030923     -0.019060
Sc	      2.06798      2.03480      0.02993         0.087256     -0.092662     -0.002545
Sc	      6.38648      4.10089      6.28125        -0.091620     -0.059285     -0.006358
Sc	      0.04943      4.16786      4.19738         0.118525     -0.131208      0.068514
Sc	      4.22405      6.20960      6.34613        -0.136602     -0.028815      0.003648
Fe	      2.30289      4.22605      2.12679        -0.088832      0.168563      0.016477
Fe	      8.44401      8.20108      8.50432         0.310349     -0.069454      0.017662
Ni	      0.03467      0.04133      0.02848         0.043660     -0.032266      0.040918
Ni	      4.24992      6.26964     10.53327        -0.091238     -0.082241      0.113981
Ni	      6.37753      6.22229      8.50407        -0.026055      0.025383      0.019751
O	      4.28659      1.87427      4.22067        -0.020573      0.196300      0.025731
O	      2.13428      2.34412      2.08110        -0.003521     -0.221447     -0.043538
O	      4.21639      4.20603      2.07643         0.312322     -0.012886     -0.024520
O	      6.63136      4.15304      4.26051        -0.176132      0.003808      0.014083
O	      6.49806      2.03694      6.37426        -0.124082      0.022640     -0.020251
O	      8.56477      4.13605      6.56965        -0.034667      0.067668     -0.246943
O	      2.12580      4.22797      3.97853        -0.076213      0.031161      0.264029
O	      4.25890      6.29967      4.30548         0.024672     -0.008832     -0.010669
O	      4.31009      4.11662      6.45140         0.023430     -0.018246     -0.152774
O	      6.31832      6.18936      6.46681         0.120310      0.051175      0.036183
O	      6.28166      4.14216      8.49572         0.101567      0.008011     -0.016258
O	      8.47905      6.18770      8.54924         0.028459     -0.205961      0.004030
O	      2.09998      6.26194      6.35744         0.040989      0.002486     -0.014692
O	      4.19745      8.33977      6.28901         0.029867      0.007441      0.005541
O	      4.27762      6.04896      8.49554        -0.051156      0.268227     -0.095804
O	      6.56959      8.21751      8.51159        -0.450423     -0.061939      0.002720
O	      6.19907      6.21526     10.62696         0.190966      0.067499     -0.069484
O	      8.61289      8.42576     10.57992        -0.037961     -0.086256      0.151316
