# total energy = -232.32073505 eV
 
CRYSTAL
PRIMVEC
-0.016690 6.460196 6.247688 
6.418419 0.033508 6.196956 
4.311940 4.306409 -0.010807 
PRIMCOORD
36 1
Li	      4.38387      4.25712      0.15402         0.000754      0.006968      0.001732
Li	      8.42864      2.29569      6.37480        -0.045435      0.041868     -0.075118
Li	      2.11855      6.48924      8.14924        -0.013105      0.033364      0.039637
Li	      4.20799      8.67925      8.14798        -0.025687      0.003061     -0.021329
Li	      0.09333      2.12543      2.03655        -0.004108     -0.056412     -0.037564
Li	      8.63030      4.23948      8.09660         0.048735      0.008871      0.097720
Li	      6.58934      4.18172      6.32374         0.001044      0.025875      0.072085
Li	      4.14406      6.43571      6.33010        -0.002643     -0.023391      0.013879
Li	      4.24118      4.37808      8.23854         0.020795      0.016496     -0.032731
Sc	      8.55109     10.72445     10.38105        -0.016664      0.069463      0.038018
Sc	      2.10549      2.15433      3.99675         0.056413     -0.019514     -0.007973
Sc	      8.71364      6.47817      6.35636         0.008268     -0.030582      0.014239
Sc	      6.36154      6.47186      8.23051        -0.013269     -0.081609     -0.107040
Fe	      6.42911      8.64031     10.35376        -0.006110      0.072037     -0.002426
Fe	      4.28680      4.36616      4.00723        -0.025661     -0.030330      0.152993
Fe	      4.22734      8.48714      4.14840         0.064830      0.084102      0.048050
Co	      2.12562      4.37742      6.23035         0.013464     -0.059838      0.063888
Ni	      2.14396      6.45611      4.16294        -0.026476      0.010805      0.008050
O	      2.14720      2.16957      2.07979         0.007760     -0.017785      0.002780
O	      4.24429      4.33573      2.18104         0.052807     -0.020255     -0.180845
O	      4.31475      2.18437      4.15450         0.010534     -0.005537     -0.007192
O	      6.39731      4.30877      4.16413         0.075740     -0.038529     -0.016634
O	      6.41618      2.23397      6.07169         0.015454     -0.016777      0.038880
O	      8.55316      4.43260      6.16593        -0.006491      0.031759     -0.012557
O	      2.12385      4.32174      4.30104         0.000640     -0.073986     -0.008868
O	      4.31278      6.47154      4.16450         0.037772     -0.042901      0.001628
O	      4.06789      4.29739      6.11062        -0.049683      0.063433      0.004951
O	      6.52852      6.66894      6.18655        -0.026885      0.069344      0.015557
O	      6.41715      4.39856      8.44705        -0.013531      0.000777     -0.119906
O	      8.51715      6.52665      8.33653        -0.025512      0.052458     -0.053590
O	      2.13698      6.20018      6.17287        -0.017310     -0.100025      0.095158
O	      4.55827      8.60877      6.11188         0.034450      0.002318      0.060028
O	      4.32838      6.45404      8.35654        -0.009628      0.010981     -0.031603
O	      6.43865      8.62337      8.30673         0.006199     -0.004602     -0.041738
O	      6.38185      6.57476     10.36341        -0.035951     -0.032987      0.016048
O	      8.58874      8.62691     10.47151        -0.091508      0.051081     -0.028208
