# total energy = -139.30801977 eV
 
CRYSTAL
PRIMVEC
-2.033502 2.025817 4.155200 
-2.057901 -6.244480 4.227830 
4.204288 -0.023507 4.236714 
PRIMCOORD
24 1
Li	     -0.93491     -3.04810      7.24505         0.008528     -0.006018      0.002624
Li	      1.14232     -3.06988      5.07851         0.005027     -0.017023      0.001449
Li	      1.11054     -1.09571      7.35956         0.000190      0.000325     -0.000549
Li	     -1.00392     -5.21906      5.27727        -0.000025      0.000446     -0.000040
Li	      3.11241     -1.14664      5.48525        -0.005159      0.015016     -0.000316
Li	     -1.04859      0.88017      3.23736        -0.007100      0.005555     -0.000380
Mn	      1.07600      0.96183      5.24213        -0.002840      0.000344     -0.001992
Mn	      1.14493     -3.15318      9.47710         0.002181     -0.001745     -0.001424
Mn	      1.09824     -5.23087      7.39573        -0.001926     -0.000785      0.003999
Ni	     -0.99157     -1.08415      5.24129        -0.000559      0.001394     -0.001136
Ni	      1.03544     -1.09812      3.16141         0.052887      0.058045     -0.000355
Ni	     -0.98537     -3.09594      3.16584        -0.053063     -0.052821     -0.001171
O	      1.04099     -5.17391      9.35016        -0.009571      0.013178     -0.023176
O	     -3.20048     -3.18792      7.18203        -0.038649     -0.103274     -0.019470
O	     -1.18115     -3.19557      5.24903        -0.076222     -0.090143      0.090491
O	      1.11904      1.10465      7.18438         0.081441      0.042090     -0.035159
O	     -0.99835     -1.08861      7.29800         0.147742     -0.147293      0.095740
O	      1.11203     -0.91769      5.24666         0.089646      0.074582      0.096551
O	     -0.87828     -3.26212      9.59689         0.012941     -0.011775      0.020943
O	      1.10179     -3.29618      7.53470        -0.082211     -0.041701      0.036317
O	      1.10917     -1.27369      9.47247        -0.091490     -0.074841     -0.097624
O	     -0.84063     -5.22438      7.52822         0.037116      0.101679      0.019025
O	     -0.98524     -1.07949      3.18421        -0.144372      0.145638     -0.093443
O	     -0.80213      1.02766      5.23350         0.075487      0.089127     -0.090904
