# total energy = -235.45582239 eV
 
CRYSTAL
PRIMVEC
-0.003665 6.451656 6.372452 
6.383256 0.000666 6.368078 
4.251671 4.294270 0.004432 
PRIMCOORD
36 1
Li	      6.41773      6.45333     12.62692         0.011857      0.030357      0.010271
Li	      8.45570      8.62413     12.66336        -0.007764     -0.012387     -0.011838
Li	      2.19332      6.41226      8.46480        -0.006678      0.000240     -0.073395
Li	      8.51430      4.24354      4.37638        -0.004298     -0.033515      0.043566
Li	      6.30972      6.48470      4.31024         0.056850      0.035532     -0.057728
Li	      4.28627      2.08100      6.27577         0.076796     -0.020542      0.018055
Li	      4.22655      8.53779      4.36864        -0.018936     -0.002176     -0.025123
Li	      8.47966      6.54581     10.70059        -0.088521      0.082383     -0.015036
Li	      8.44753      8.66923      8.54372        -0.048131     -0.002316      0.049814
Sc	      4.22576      8.56624      8.48189        -0.141108      0.134040      0.046267
Sc	      4.23387      6.42366      2.19172         0.002009     -0.012878     -0.340723
Sc	      2.12550      4.29055      2.14585         0.118860     -0.036260     -0.072809
Sc	      6.39807      6.45286      8.52569         0.083432      0.040614      0.302818
Fe	      6.43424      2.13467      4.33433         0.120483      0.102540      0.129349
Fe	      6.42389      4.29799      6.29411         0.020288     -0.206448      0.137276
Fe	      2.16047      4.37521      6.24451        -0.077992      0.060273      0.250647
Fe	      4.20362      6.44844      6.28103        -0.217674      0.077049      0.182353
Ni	      4.27417      4.30912      4.26242         0.114060     -0.266484     -0.068773
O	      2.13349      2.19225      2.16113        -0.014808     -0.025245      0.120438
O	      4.22497      4.30164      2.11863        -0.114064      0.037962      0.033988
O	      4.52022      2.21131      4.20655        -0.370095     -0.093800     -0.118793
O	      6.35782      4.10849      4.31917         0.063329      0.202166     -0.164337
O	      6.35646      2.26836      6.41316        -0.032340     -0.038384      0.103462
O	      8.37144      4.31106      6.43082         0.001810      0.037968      0.108937
O	      2.18993      4.23094      4.30258        -0.108238      0.003138     -0.180700
O	      4.26195      6.41462      4.26629         0.041040      0.097810     -0.028675
O	      4.26184      4.38590      6.33698        -0.035173      0.060739      0.041886
O	      6.32447      6.38962      6.37912        -0.056794      0.054493     -0.111989
O	      6.37706      4.30404      8.49930         0.056440     -0.025849      0.019909
O	      8.50586      6.36525      8.53069         0.046494      0.008090      0.037504
O	      2.20832      6.33837      6.35923         0.123724     -0.042279     -0.046606
O	      4.34235      8.51768      6.34847         0.052736     -0.028171      0.007100
O	      4.29174      6.50881      8.39008         0.115986      0.003716     -0.080003
O	      6.35440      8.53188      8.37789        -0.037865      0.013662     -0.038646
O	      6.35751      6.68976     10.61616        -0.063590     -0.275851     -0.137231
O	      8.23472      8.61695     10.63575         0.337873      0.039810     -0.071234
