# total energy = -222.49496279 eV
 
CRYSTAL
PRIMVEC
0.029918 6.277099 6.443908 
6.423140 0.006430 6.467352 
4.289617 4.207111 -0.002701 
PRIMCOORD
36 1
Li	      4.49582      8.27868      8.64466         0.023735     -0.045075     -0.012200
Li	      6.44711      8.38631     10.66408        -0.008911      0.072130     -0.025134
Li	     10.56828      6.39519      8.55207         0.061481      0.124971     -0.000624
Li	      8.39185      4.44287      8.59623        -0.156996     -0.110935      0.007595
Li	      4.46920      2.09851      6.59952         0.037641     -0.005091     -0.125767
Li	      6.30447      4.20221      6.67561         0.030159      0.032903     -0.087670
Li	      6.52700      8.34737      6.55023        -0.053681     -0.070550      0.076468
Li	      8.49175      8.38054      8.59217         0.063056      0.184856      0.051683
Li	      6.54489      6.29586      8.41891        -0.123476     -0.022716     -0.028573
Sc	      4.29042      4.21280      0.15496        -0.010559     -0.126290      0.006630
Sc	      8.47059      2.19756      6.59575         0.071000      0.142286      0.001282
Sc	      2.26289      2.09960      4.28859         0.010866     -0.629803      0.020695
Sc	      6.40302      4.25106     10.56465        -0.158560      0.098082     -0.165535
Mn	      4.28095      6.25056      6.39608         0.144883      0.175055      0.088021
Cu	      6.50625     10.38959      8.63644        -0.047705     -0.079418     -0.204496
Cu	      4.31879      0.03093      4.37333        -0.145590      0.043422     -0.051049
Cu	      4.32377      4.16957      4.26772         0.354578     -0.254701     -0.167658
Ni	      8.57350      6.28449     10.64465        -0.079573     -0.032927     -0.861119
O	      8.53604      6.38437      8.71538         0.058447     -0.058068      1.036914
O	      4.11340      6.21488      8.26533         0.031838     -0.007489     -0.037118
O	      6.48213      8.54013      8.55426         0.043594     -0.098569     -0.044578
O	      2.15585      1.84057      2.19003         0.046554      0.011381      0.155271
O	      4.55272      4.10230      2.30698        -0.134380      0.007623      0.082192
O	      4.28972      1.96822      4.36393         0.038822      0.345721      0.040139
O	      6.70593      4.18533      4.33142        -0.120465      0.319087      0.386757
O	      6.47191      2.01704      6.57699        -0.057842     -0.021345      0.067543
O	      8.71595      4.18803      6.70937        -0.028312      0.083207      0.160651
O	      2.12247      4.17737      4.17292        -0.013063      0.641326      0.034532
O	      4.30498      6.29525      4.38886        -0.228665      0.088910     -0.191239
O	      4.28288      4.33493      6.18522        -0.170321     -0.054987      0.125028
O	      6.15402      6.30694      6.39257         0.097460      0.092256     -0.059261
O	      6.38965      4.22693      8.62961        -0.000141     -0.020840      0.114256
O	      2.22931      6.31485      6.20960        -0.010406     -0.110885     -0.569702
O	      4.23267      8.29508      6.38273         0.071113     -0.061448     -0.033810
O	      6.32758      6.30176     10.86314         0.527025     -0.001004      0.133389
O	      8.62147      8.54023     10.83343        -0.163609     -0.651076      0.076489
