# total energy = -222.05595191 eV
 
CRYSTAL
PRIMVEC
0.004729 6.359530 6.371028 
6.334198 0.042386 6.332809 
4.242794 4.234127 0.008433 
PRIMCOORD
36 1
Li	      6.38981      6.31152     12.52272         0.029865     -0.072765     -0.012024
Li	      4.27338      0.05658      4.29937         0.080119      0.039224      0.004398
Li	      6.38668      2.09070      4.37519        -0.000610     -0.108496     -0.026026
Li	      4.21803      4.15371      4.33744        -0.006049     -0.016520      0.013001
Li	      4.15796      2.17135      6.21639        -0.000404     -0.013470      0.011345
Li	      6.35217      4.38847     10.62881         0.007184      0.096865     -0.027198
Li	      8.26740      6.40641     10.63835        -0.127245     -0.006319      0.017433
Li	      2.09818      4.26381      6.29024        -0.039389      0.029805     -0.006855
Li	      6.41606      6.36653      8.60901        -0.025116      0.002670      0.129982
Sc	      6.36559     10.56757      8.53647         0.008997     -0.021989     -0.081470
Sc	      4.32431      8.44652      8.52136         0.050606     -0.053742     -0.059005
Sc	     10.47861      6.44252      8.45662         0.001509     -0.033616      0.001141
Sc	      4.25757      6.34320      6.23311        -0.122064      0.091069      0.050458
Mn	      8.41136      4.31722      8.47662         0.035797     -0.067048     -0.012492
Ni	      8.46986      8.53458     12.55200         0.069749     -0.035229     -0.035554
Ni	      2.14490      2.14160      4.26089        -0.023597      0.042270     -0.086950
Ni	      6.35974      4.29260      6.31684         0.029088     -0.042207      0.021294
Ni	      8.42338      8.52581      8.54753         0.033661     -0.021547      0.085324
O	      6.29487      6.42861     10.60790        -0.023813     -0.009839      0.023964
O	      2.11038      2.21479      2.08160        -0.009397      0.074880     -0.078533
O	      4.14493      4.25970      2.05952        -0.049207      0.010701     -0.028393
O	      4.03879      2.14533      4.19243         0.128544      0.017022      0.034112
O	      6.34693      4.40528      4.22196        -0.016111     -0.063813     -0.058915
O	      6.41021      2.36382      6.35340        -0.089057     -0.033679      0.008484
O	      8.32665      4.24739      6.52083         0.075172      0.133288      0.033195
O	      2.14285      4.11015      4.06464         0.035562      0.060480     -0.014891
O	      4.43904      6.34235      4.19478        -0.042301     -0.041706     -0.039982
O	      4.37883      4.25376      6.50044        -0.094319     -0.046215     -0.120260
O	      6.34727      6.22914      6.30572         0.044831      0.138771      0.108685
O	      6.46954      4.28051      8.46715         0.073922     -0.010975      0.075685
O	      8.46724      6.23198      8.52398        -0.011170     -0.063235      0.039968
O	      2.15872      6.39663      6.40358         0.010972     -0.076622     -0.022399
O	      4.22326      8.42855      6.41377         0.070671     -0.020787     -0.003996
O	      4.17715      6.38629      8.42217        -0.009721      0.069849     -0.003836
O	      6.34719      8.55012      8.49876        -0.077015      0.044439     -0.012232
O	      8.49527      8.48922     10.52614        -0.019661      0.008485      0.072537
