# total energy = -255.88494349 eV
 
CRYSTAL
PRIMVEC
0.034140 6.432473 6.520595 
6.442842 0.007682 6.548007 
4.288803 4.299688 0.011731 
PRIMCOORD
36 1
Li	      8.42025      2.27578      6.66995         0.052965      0.020375      0.034239
Li	      6.33326      2.25839      4.56731        -0.014617      0.038701      0.041751
Li	      6.55652      2.21088      8.60972         0.001927      0.009586      0.039833
Li	      8.45712      4.29806      8.55957        -0.021730      0.043221     -0.043053
Li	      6.52909      6.36959      4.45264         0.018101     -0.017758      0.066173
Li	      4.38245      4.22326      4.46817         0.014142      0.003619      0.021696
Li	      4.29486      2.19138      6.40447        -0.041899     -0.001397     -0.042081
Li	      6.50137      4.15369      6.60007        -0.019335      0.000895     -0.004141
Li	      6.55482      6.34093      8.55976         0.031610     -0.052051     -0.120604
Sc	      6.41994      0.21075      6.60204        -0.144615     -0.001779      0.079640
Sc	      4.26053      2.16404      2.22330        -0.039082      0.060873      0.038693
Sc	      8.50064      4.33452      4.49161        -0.003511     -0.020618      0.036675
Sc	      0.07260      4.23735      4.30488        -0.001873     -0.060746     -0.073503
Sc	      4.35110      4.26070      8.59676         0.012598     -0.107826     -0.004777
Ti	      8.65943      6.41422     10.80510         0.152390     -0.013480     -0.434878
Cr	      2.20204      4.27263      6.50388         0.034971     -0.105333      0.005607
Fe	      6.35810      4.39187      2.33666         0.067255     -0.093510     -0.085387
Fe	      4.40413      6.40913      6.53263        -0.026584     -0.004356     -0.023217
O	      2.20938      2.02920      2.15233         0.014162      0.128036     -0.000802
O	      4.39894      4.24553      2.14323        -0.111735     -0.003429     -0.012310
O	      4.32382      2.04702      4.26189        -0.000869      0.049552      0.031086
O	      6.47095      4.27317      4.27318         0.008549     -0.000250      0.131371
O	      6.45087      2.15290      6.57135        -0.029810     -0.027079     -0.000412
O	      8.64590      4.29990      6.50185         0.012501      0.005826     -0.002821
O	      2.14219      4.44055      4.43916         0.023890      0.102829      0.023946
O	      4.11811      6.46810      4.36781        -0.176785      0.006836     -0.041002
O	      4.21666      4.25391      6.55863        -0.000416      0.003320     -0.002772
O	      6.39254      6.59021      6.51620         0.137566      0.054073     -0.014082
O	      6.39987      4.30849      8.79941         0.022328     -0.022574     -0.014708
O	      8.53790      6.47863      8.94440         0.012092     -0.014680      0.392550
O	      2.20860      6.36981      6.45553        -0.056182      0.002344     -0.044397
O	      4.44008      8.63197      6.52701         0.003125      0.029685      0.007523
O	      4.24115      6.40804      8.78267         0.023144      0.003509     -0.001473
O	      6.47641      8.70273      8.55028        -0.004745      0.020568     -0.016674
O	      6.53820      6.37117     10.99025         0.051341      0.009097      0.029907
O	      8.66434      8.49709     10.83892        -0.000867     -0.046079      0.002403
