# total energy = -258.99469374 eV
 
CRYSTAL
PRIMVEC
0.014610 6.473742 6.469041 
6.436611 0.004915 6.478763 
4.296086 4.327057 -0.001568 
PRIMCOORD
36 1
Li	      4.29494      4.39619      0.12498         0.011500     -0.002828     -0.070047
Li	      2.19575      8.54898      6.53758         0.070483     -0.042456      0.044363
Li	      6.34492      4.24085      2.15248        -0.072792     -0.011779      0.001038
Li	      4.36327      2.28033      2.15439        -0.019772      0.017643     -0.012312
Li	      6.43197      8.63622     10.62706        -0.026094     -0.009190      0.011461
Li	      4.29822      6.31488      2.08256         0.001577      0.033813     -0.025487
Li	      4.32552      4.28432      4.14147         0.025839     -0.012246     -0.037202
Li	      8.42133      8.70556      8.66888        -0.037566      0.042023      0.034571
Li	      6.45086      6.59202      8.68831         0.002265     -0.025069      0.027527
Sc	      4.34148      6.48094     10.63612         0.067587     -0.048273     -0.046470
Sc	      6.43314      4.26420      6.58103         0.051154     -0.075816      0.113323
Sc	      6.45144      4.31847     10.77423        -0.038974      0.037284     -0.071280
Sc	      8.54905      6.54964     10.76732        -0.014495      0.041305     -0.029849
Sc	      6.41893      8.68716      6.67096        -0.074866      0.038325      0.059486
Ti	      2.16854      2.10920      4.15541         0.043311     -0.107416     -0.414707
Mn	      2.27524      4.32808      2.11396        -0.109819     -0.017735     -0.038220
Mn	      4.33032      2.18540      6.49334         0.044342     -0.048635      0.054066
Mn	      4.27196      6.50011      6.63483        -0.009943      0.028746      0.053411
O	      2.12445      2.26066      2.29749         0.048585     -0.038622      0.382249
O	      4.14071      4.31845      2.14016         0.118583     -0.002038     -0.004800
O	      4.09450      2.12075      4.29083        -0.130649      0.042324     -0.048243
O	      6.45170      4.52585      4.34661         0.024656      0.177718     -0.038663
O	      6.27657      2.25281      6.41251         0.040860     -0.030834      0.008760
O	      8.53044      4.42973      6.38962         0.007244      0.040852     -0.010059
O	      2.13280      4.25749      4.39851         0.014263     -0.055532      0.007852
O	      4.39952      6.52338      4.37894         0.085907     -0.024813     -0.019910
O	      4.31995      4.23905      6.55465        -0.023763     -0.025072      0.015119
O	      6.56302      6.49899      6.40596        -0.007789     -0.003871     -0.083910
O	      6.69937      4.31199      8.62862        -0.036237      0.001370     -0.016935
O	      8.63972      6.33578      8.71184         0.047061     -0.003128      0.014544
O	      2.16655      6.42866      6.38693        -0.044123      0.002728      0.052124
O	      4.36082      8.59661      6.39932        -0.010759      0.068452      0.001225
O	      4.33449      6.43061      8.67125        -0.006183     -0.013689      0.091382
O	      6.43359      8.66643      8.62524        -0.043591     -0.006519     -0.043487
O	      6.46230      6.41729     10.76253         0.017295      0.017037     -0.002405
O	      8.66558      8.62436     10.74678        -0.015099      0.015940      0.041484
