# total energy = -254.21571349 eV
 
CRYSTAL
PRIMVEC
0.027273 6.461496 6.358083 
6.383672 0.027328 6.357963 
4.266237 4.318035 0.007858 
PRIMCOORD
36 1
Li	      8.58076      8.62363     12.48388        -0.003078      0.013823      0.044449
Li	      8.53348     10.61611     10.64696         0.001698     -0.029367      0.007672
Li	      6.58393      8.64982     10.60445        -0.035188      0.001251      0.014807
Li	      6.29928      6.47413      4.26578         0.005631      0.004115      0.016085
Li	      4.27823      4.42976      4.28158         0.001674     -0.004125      0.021780
Li	      4.27337      2.17728      6.28872        -0.009311     -0.003836     -0.080654
Li	     10.47534      8.51953     10.64623         0.059514     -0.002014      0.003951
Li	      8.66944      6.68877     10.64200        -0.012847     -0.011026      0.008723
Li	      4.23735      6.49445      6.17188        -0.010919     -0.020106     -0.035292
Sc	      6.36462      6.53614     12.51274        -0.046060      0.051936     -0.066757
Sc	      6.42559      4.31930      2.19771         0.012217      0.006720      0.035535
Sc	      2.12337      4.33183      2.24571        -0.033731      0.042661     -0.014874
Sc	      6.36922      4.30945      6.22716        -0.001774      0.019471     -0.024966
Sc	      2.20294      4.27492      6.20524         0.040293     -0.057597     -0.050811
Ti	      4.26131      2.09195      2.25390         0.010651     -0.071799      0.700479
V	      6.41975      6.49859      8.57129         0.025438     -0.058309     -0.026016
Cr	      4.24920      6.47979      2.20596         0.010745      0.037288     -0.051211
Ni	      8.57593      8.58239      8.58507        -0.047852      0.068781     -0.144427
O	      2.18773      2.13950      2.13600         0.020263     -0.022340      0.019983
O	      4.27090      4.35440      2.08966         0.027181     -0.017363      0.013853
O	      4.26532      2.22960      4.03920        -0.011665      0.015715     -0.628110
O	      6.38407      4.33031      4.22674         0.019563      0.016557     -0.057229
O	      6.37453      2.18463      6.48665         0.023445     -0.010492      0.007658
O	      8.51231      4.35856      6.43555         0.028446     -0.026910      0.010963
O	      2.16976      4.25415      4.23508         0.024772     -0.043255      0.012221
O	      4.28873      6.46786      4.11076        -0.008906     -0.012002      0.066503
O	      4.27648      4.32725      6.48564        -0.029498      0.018109     -0.104353
O	      6.40678      6.46509      6.53864        -0.021577      0.026384     -0.039002
O	      6.41550      4.28221      8.45515         0.103879     -0.018045      0.055858
O	      8.52747      6.46484      8.52536         0.026075     -0.105573      0.002835
O	      2.09747      6.39305      6.44084         0.006879      0.004476     -0.033376
O	      4.34120      8.72780      6.51681        -0.006625     -0.016692      0.034334
O	      4.32077      6.60837      8.49111        -0.034328      0.194005      0.049635
O	      6.33124      8.62755      8.47588        -0.151591      0.046142      0.004029
O	      6.37745      6.51176     10.50638        -0.007265      0.003618      0.065312
O	      8.52874      8.66456     10.52640         0.023852     -0.040202      0.160415
