# total energy = -186.87563355 eV
 
CRYSTAL
PRIMVEC
-0.014955 6.188136 6.114001 
6.117218 -0.024512 6.123326 
4.070447 4.123864 -0.008442 
PRIMCOORD
36 1
Li	      2.05881      2.07176      0.01513         0.009722     -0.001541      0.033540
Li	      4.02014      2.08845      1.97308        -0.052012      0.065105      0.062288
Li	      8.16635     10.24510     10.26349         0.007620     -0.033767      0.009176
Li	      0.03527      2.04025      2.01518         0.044787     -0.018685      0.052361
Li	      2.04656      4.08733      1.98848         0.074938     -0.064778      0.091625
Li	      8.17649      6.07195      6.12678        -0.011865     -0.003965     -0.035075
Li	      4.07301      8.26212      4.09715        -0.059366      0.019671     -0.021086
Li	      8.09345      6.18413     10.23379         0.064679     -0.031563     -0.033816
Li	      1.94653      4.18842      6.09210         0.012480     -0.012416     -0.046132
Fe	      2.07943      2.13034      4.06956        -0.079587     -0.168026      0.178445
Fe	      4.03823      4.12927      4.05591        -0.130513      0.134636      0.022978
Co	      6.12205      6.18615      8.15755         0.038861     -0.134711     -0.229850
Cu	      6.11670      8.17140     10.21306        -0.467846      0.325360      0.310867
Cu	      4.07838      4.09164      8.14476         0.166489     -0.051764     -0.151677
Ni	      4.04497      4.08832      0.02762        -0.063915     -0.073858      0.087967
Ni	      2.04570      6.19082      8.15100        -0.093057      0.109456     -0.002604
Ni	      6.19375      4.05580      6.14444         0.031465     -0.064350     -0.067385
Ni	      4.01749      6.26704      6.09554        -0.107253      0.097163     -0.313148
O	      7.95542      6.26704      8.12230        -0.105102     -0.000997     -0.031272
O	      8.05522      8.21646     10.06988         0.472010      0.071286     -0.232882
O	      2.04250      2.00692      2.22885        -0.035335      0.004835     -0.559633
O	      4.10390      4.13247      2.16201        -0.033764     -0.001752     -0.517173
O	      3.98002      2.10186      4.09960         0.661338     -0.097149      0.073402
O	      6.04826      4.04350      4.09094         0.280443      0.017467     -0.059911
O	      6.12098      1.95725      6.04941        -0.022962      0.077318      0.141617
O	      8.19894      4.05931      6.14098        -0.034439      0.048589     -0.019222
O	      2.13418      4.09139      4.07853        -0.251109      0.191866      0.024845
O	      4.21916      6.16271      4.10606        -0.537915      0.071955      0.004828
O	      4.13230      4.18523      6.01405        -0.100345     -0.125512      0.710223
O	      6.06140      6.13817      6.12438         0.204712      0.133338      0.352438
O	      6.05043      4.26424      8.12636         0.020581     -0.018119      0.196422
O	      1.96646      6.18221      6.18278         0.060930      0.036830     -0.098850
O	      4.02620      8.31004      6.08848         0.061239     -0.056985      0.069644
O	      4.16378      6.10227      8.06950         0.172716      0.009889      0.286368
O	      6.15791      8.14075      8.21365        -0.120956      0.018632     -0.262282
O	      6.06871      6.24978     10.04516        -0.077666     -0.473461     -0.027038
