# total energy = -187.51960385 eV
 
CRYSTAL
PRIMVEC
-0.017167 6.338461 6.190554 
6.164850 -0.024879 6.198001 
4.076594 4.196602 0.017841 
PRIMCOORD
36 1
Li	      6.12969      0.09954      6.26053        -0.017415      0.043117      0.059223
Li	      6.11797      2.19014      4.17162        -0.006718      0.060938      0.027113
Li	      6.16569      2.07454      8.23396         0.061365      0.009200     -0.085806
Li	      8.16229      4.23995      8.30070         0.044490     -0.022548     -0.074796
Li	      6.09988      6.32413      4.17875         0.023319     -0.081328      0.006925
Li	      4.14764      4.11614      4.12755         0.044534     -0.050591      0.023988
Li	      6.15751      4.16468      6.14133        -0.016503     -0.045334     -0.052701
Li	      6.16824      8.33559      6.18441         0.085977     -0.020084      0.039667
Li	      8.16912      8.30085      8.19889        -0.007855     -0.046441     -0.079970
Fe	      6.10380     10.47810      8.26873        -0.258750      0.013160      0.360600
Fe	      4.11768      2.14202      2.12502        -0.056141      0.161927     -0.006226
Co	      4.13334      2.12651      6.17323        -0.071957      0.177401     -0.149323
Cu	      8.17175      2.13486      6.20897        -0.145321      0.159350      0.115918
Cu	      2.01871      6.30407      4.17830         0.070416     -0.053564     -0.007402
Cu	      4.11838      6.22014      6.19174         0.067383     -0.241669     -0.127660
Cu	      6.16511      6.23825      8.23956         0.090983      0.115651      0.060595
Ni	      4.10695      0.00742      4.14657        -0.094311      0.138149      0.021368
Ni	      4.05637      8.45941      4.19341         0.055660     -0.232653      0.083922
O	      2.16871      6.16304      6.39953         0.060425     -0.090397     -0.793083
O	      3.88566      8.57906      6.14717         0.167790     -0.096914      0.147236
O	      6.19139      6.12694     10.25381        -0.068919      0.290486      0.121339
O	      8.28491      8.40135     10.50479        -0.161509     -0.003441     -0.104344
O	      2.10740      2.03975      1.90516        -0.063398      0.106572      0.008005
O	      4.19189      4.12097      2.09843        -0.270502     -0.006822     -0.016075
O	      4.08280      2.05813      4.10226        -0.038053      0.020128      0.053800
O	      6.17248      4.22281      3.92636         0.098264      0.038208      0.403687
O	      6.29023      2.12578      6.18605         0.132192     -0.029888     -0.008021
O	      8.19351      4.50996      6.14826         0.030351     -0.152908      0.089068
O	      1.84341      4.31521      4.16459         0.160871      0.050209      0.013004
O	      3.99220      6.54477      4.22816        -0.010323     -0.151191      0.098620
O	      4.12666      3.90766      6.11703        -0.026176      0.144130      0.062304
O	      6.05434      6.23101      6.28839        -0.129051      0.118758     -0.098095
O	      6.11035      4.25428      8.51498        -0.060105     -0.060889     -0.250183
O	      8.12125      6.28922      8.10339         0.005190      0.013036      0.241015
O	      4.08493      6.35588      8.24253         0.200136     -0.078048     -0.174325
O	      6.06228      8.37764      8.28681         0.103660     -0.195710     -0.009385
