# total energy = -195.87671158 eV
 
CRYSTAL
PRIMVEC
0.034471 6.283677 5.959122 
6.401614 0.036090 5.955420 
4.280687 4.199512 0.012168 
PRIMCOORD
36 1
Li	      0.13528      6.30441      6.00936         0.013052      0.037588     -0.007651
Li	      6.47734     10.39022      7.90003         0.002323      0.005383      0.017753
Li	      4.41747      8.31767      7.95628        -0.010162      0.018694     -0.001504
Li	      6.52524      8.36421      9.83871         0.025998     -0.004513     -0.007458
Li	      6.38104      2.22254      7.94316        -0.030146     -0.026229      0.021800
Li	      8.45431      4.28513      7.95014        -0.017944      0.000278      0.027362
Li	      8.60157      6.32088      9.84566         0.053591      0.031881     -0.040630
Li	      8.49128      8.41828      7.97491        -0.014339     -0.038066      0.053156
Li	      6.45549      6.33321      7.95649         0.040361     -0.009249      0.034481
Fe	      2.12012      2.06754      3.85099        -0.048861      0.059829      0.051648
Fe	      8.73515      6.26964      6.10038        -0.179979      0.001047     -0.102548
Co	      2.17943      2.15031      0.07189        -0.182154      0.045579     -0.047684
Co	      4.40242      6.30581      9.88568         0.084566     -0.097543     -0.060449
Co	      4.24000      4.19520      3.83428         0.003516      0.067959     -0.374101
Co	      4.26497      6.28718      6.01142        -0.088505      0.126193     -0.020293
Cu	      6.38620      4.19291      6.02919        -0.054371     -0.076184     -0.018143
Cu	      6.37499      8.39269      6.00482        -0.007549      0.012016     -0.128586
Ni	      6.40169      4.26867      9.86372        -0.029681     -0.047228     -0.013238
O	      8.54683      6.30478      7.89888        -0.057889      0.012035      0.191987
O	      6.40366      8.39938      7.81951         0.026015      0.010812      0.150050
O	      2.15107      2.14797      1.96208         0.068878     -0.001244     -0.230465
O	      4.30938      4.20781      2.09408         0.027712     -0.006868      0.281458
O	      4.16652      2.05676      4.08027         0.020452     -0.008328     -0.032864
O	      6.49813      4.25595      4.10183        -0.015937     -0.124432      0.026559
O	      6.39092      2.29426      5.94382         0.154087     -0.025550     -0.022577
O	      8.69792      4.22924      5.83952        -0.026393     -0.084473     -0.076334
O	      2.11680      4.10496      4.08353         0.226563      0.007319      0.015641
O	      4.35204      6.27718      4.09255         0.026907     -0.186659      0.027492
O	      4.00072      4.29542      5.87119         0.057508     -0.028124      0.019901
O	      6.20687      6.05892      5.95308         0.050277      0.062007      0.078729
O	      6.41498      4.21079      7.88297        -0.040437     -0.027545     -0.298884
O	      2.34806      6.56382      5.92028         0.118341      0.014186      0.055278
O	      4.47200      8.19256      5.95142        -0.008078     -0.033470      0.184293
O	      4.21358      6.27199      8.05055         0.017933      0.028666      0.084918
O	      6.24431      6.28628      9.92453        -0.205346      0.224565      0.014341
O	      8.65434      8.60615     10.05121        -0.000308      0.059668      0.146561
