# total energy = -183.55576410 eV
 
CRYSTAL
PRIMVEC
0.009694 6.240507 6.268936 
6.040336 0.039244 6.240025 
4.038968 4.153393 0.013805 
PRIMCOORD
36 1
Li	      0.05877      0.04844      0.07147         0.028605     -0.022694      0.018133
Li	      2.00750      8.23341      6.31023        -0.005386      0.017205     -0.015589
Li	      2.05119      6.20014      8.26107        -0.022355     -0.006636     -0.003121
Li	      6.10551      2.14041      8.20381        -0.013613     -0.032452      0.023041
Li	      2.01869      2.07719      4.01863        -0.054589      0.022911      0.042405
Li	      6.06069      4.13267      6.26357        -0.028170     -0.017922     -0.000331
Li	      2.03312      6.24513      4.30558         0.019644     -0.032190     -0.007630
Li	      6.07961      8.39570      6.37434         0.030441      0.011082     -0.064539
Li	      8.01677      8.34842      8.33587         0.061671     -0.026809     -0.016149
Fe	      4.06001      4.21769      4.19315        -0.159352      0.053081      0.011286
Fe	      4.03625      8.29167      4.26371         0.232891     -0.290883     -0.063015
Cu	      8.00019      4.17001      4.18772        -0.279743      0.049300      0.050894
Ni	      4.02326      8.36009      8.27866        -0.015821      0.130105     -0.056030
Ni	      6.05798      8.32164     10.43044         0.239863      0.025395      0.030518
Ni	      8.05101      4.22264      8.34630         0.050984     -0.019543      0.327344
Ni	      8.06324      6.23938      6.29170        -0.104216      0.200460     -0.000751
Ni	      4.04979      6.24753      6.27883         0.113602     -0.104489     -0.204180
Ni	      6.03668      6.25426      8.33695         0.103256     -0.103436      0.024956
O	      2.17491      6.22961      6.30104        -0.303101      0.015543      0.069037
O	      2.05185      2.31662      2.02478         0.015921     -0.203918     -0.029583
O	      3.90347      4.20334      2.20390         0.149351      0.011770     -0.264445
O	      4.02560      2.02425      4.16628        -0.101598      0.099126     -0.086702
O	      6.01361      4.11467      4.10015         0.321298      0.052306      0.042890
O	      5.97141      2.08024      6.06558         0.096410     -0.026155      0.167674
O	      8.05883      4.35137      6.48168        -0.007232     -0.175700     -0.570308
O	      2.03192      4.16274      4.02404        -0.188462     -0.019406      0.151798
O	      4.07165      6.22808      4.34805         0.013348      0.113233     -0.208079
O	      4.01491      4.03024      6.13885         0.030566      0.072957      0.265311
O	      6.02648      6.23473      6.45799         0.115269      0.005073     -0.092390
O	      6.16726      4.15764      8.50109        -0.216574      0.005853     -0.307738
O	      7.95360      6.14344      8.33053         0.116191      0.101205      0.023299
O	      4.10273      8.35617      6.16242        -0.020268      0.034750      0.396870
O	      4.13220      6.29361      8.16981        -0.178044     -0.021222      0.428404
O	      6.01580      8.29476      8.51495         0.018493      0.053331     -0.152434
O	      5.95689      6.24590     10.27989         0.119825      0.129873      0.086937
O	      8.10745      8.46072     10.42251        -0.179105     -0.101104     -0.017783
