# total energy = -184.21086680 eV
 
CRYSTAL
PRIMVEC
0.006487 6.062507 6.022318 
6.630719 -0.001427 6.030646 
4.412757 4.038179 0.008104 
PRIMCOORD
36 1
Li	     10.89241      4.07217      6.07986         0.028950     -0.085077     -0.052821
Li	      8.63641      2.03249      6.02641         0.020788     -0.006359      0.022438
Li	      4.43462      2.04920      2.07160        -0.054897     -0.083490     -0.099990
Li	      6.69188      2.02428      7.90929         0.007390      0.062227     -0.000624
Li	      2.32656      2.00196      4.03225        -0.041555      0.009233      0.050320
Li	      4.65018      2.02005      6.01920        -0.023512      0.066116      0.048893
Li	      6.59694      3.99746      6.01672         0.005914      0.060554      0.080573
Li	      2.25957      4.03311      6.02486        -0.043513     -0.025095      0.051543
Li	      8.68695      7.99082      8.02987        -0.067825      0.033476     -0.048066
Fe	      2.30306      4.02604      1.95149        -0.151677     -0.196557     -0.192599
Fe	      4.44670      6.08820      6.07114         0.002743      0.199739      0.058481
Cu	      4.53113      4.03036      3.97328        -0.108936      0.116609      0.288679
Cu	      0.03238      4.05064      4.03504         0.050161     -0.085569      0.190843
Cu	      2.27367      6.09347      4.00938         0.071478      0.122691      0.269207
Cu	      6.55459      6.03916      8.08581        -0.036489     -0.109619     -0.465765
Ni	      2.12790      0.06508      1.93870         0.139198      0.105485     -0.327420
Ni	      8.70266      3.98761      4.06033         0.062782     -0.036310     -0.030536
Ni	      6.54449      1.96782      4.06593        -0.126014      0.137688      0.508810
O	      8.98538      5.95946      8.16102         0.048216      0.249002     -0.085593
O	      6.54736      7.89899      8.16075         0.000583      0.103040     -0.565483
O	      6.33211      5.90082      9.96139        -0.018804      0.207143      0.153318
O	      8.48917      7.95434     10.03240         0.633023     -0.068679     -0.174347
O	      2.22613      2.19212      2.03578         0.006253     -0.182009     -0.033643
O	      4.53458      4.05514      2.04672        -0.183563     -0.003345      0.285144
O	      4.58505      1.92173      4.07862        -0.574938      0.284887     -0.127345
O	      6.64226      4.01623      3.93352        -0.321282     -0.095278      0.228375
O	      6.60934      1.99401      5.91923         0.040037     -0.026840      0.504090
O	      8.80504      4.06879      6.16328         0.032819      0.020964     -0.377510
O	      2.52000      4.20333      3.89628         0.263969     -0.031014      0.362276
O	      4.66293      6.25162      4.17026         0.146909     -0.281963     -0.538631
O	      4.45325      4.21252      5.90708         0.001495     -0.713615     -0.351708
O	      6.38122      6.07508      6.23878         0.558019     -0.021749      0.070979
O	      6.73789      4.15708      8.18786         0.100467     -0.105632     -0.146337
O	      2.46070      6.07581      5.91790        -0.499535     -0.034094     -0.305372
O	      4.47314      8.00762      5.89328         0.030327      0.427379      0.011711
O	      4.12308      6.02726      7.91478         0.001017     -0.013940      0.738107
