# total energy = -188.45096121 eV
 
CRYSTAL
PRIMVEC
0.010923 6.131971 6.241172 
6.201554 0.006806 6.245280 
4.125195 4.081559 0.013673 
PRIMCOORD
36 1
Li	      2.06931      2.06377      0.02385         0.010171      0.014855      0.093638
Li	     10.28875      6.17471      8.39364        -0.034953      0.038609      0.033113
Li	      2.06015      4.06689      2.12029        -0.024117      0.000899      0.055908
Li	      2.03988      2.07976      4.13290        -0.059224      0.030063     -0.033494
Li	      4.09013      4.13976      4.15093        -0.036952      0.090189     -0.039396
Li	      8.27321      6.11603      6.26180        -0.005144      0.006009      0.020180
Li	      4.15439      8.11708      4.16283         0.046189     -0.013652     -0.025707
Li	      4.13685      6.14275      6.14949        -0.000025     -0.031817     -0.079665
Li	      6.25191      6.08482      8.34074         0.062786     -0.069198     -0.027037
Fe	      2.04258      0.07457      2.08234        -0.256758      0.249102      0.017612
Fe	      6.21968      4.09589      6.27570        -0.164082      0.195853     -0.211072
Fe	      6.21685      8.06531      6.20051         0.188718     -0.048580      0.072074
Cu	      4.13316      8.16269      8.32737        -0.204719      0.032975     -0.053947
Ni	     10.29127      4.11665      6.28136        -0.090304      0.105029      0.041028
Ni	      4.17234      6.12671     10.42070        -0.008427     -0.153493      0.035492
Ni	      6.18899      2.03966      4.17388         0.080536      0.039297      0.033427
Ni	      2.09486      6.12515      4.17653        -0.153214     -0.010146      0.123147
Ni	      4.20195      4.05031      8.32168        -0.118562      0.271463     -0.141144
O	      8.25866      6.21184      8.52060        -0.027350     -0.301568     -0.144173
O	      2.14887      1.97953      2.09495        -0.048601     -0.098397     -0.003055
O	      4.17615      4.01730      2.05330         0.175743      0.198750      0.090577
O	      4.22374      1.96019      4.04016        -0.096127      0.084963     -0.154892
O	      6.19918      4.05651      4.20657        -0.098196      0.084187     -0.136872
O	      6.18508      2.14701      6.20653         0.012824     -0.250668      0.041618
O	      8.19463      4.10723      6.17924         0.327243     -0.023041     -0.066039
O	      2.06319      4.16209      4.29882        -0.022410     -0.116760     -0.307170
O	      3.94764      6.16036      4.15415         0.309715      0.005220      0.044773
O	      4.14631      4.06557      6.32387        -0.114453      0.009722     -0.019225
O	      6.20124      6.11773      6.21133        -0.001237     -0.099206     -0.050075
O	      6.21036      4.11724      8.13167         0.108197     -0.041193      0.428005
O	      2.04772      6.05652      6.24957         0.056490      0.163687      0.045184
O	      4.23013      8.19400      6.35565        -0.186802     -0.102673      0.180630
O	      4.07064      6.09771      8.41781         0.141659     -0.211433     -0.034838
O	      6.18278      8.23111      8.26055         0.209158     -0.103210      0.156329
O	      6.29426      6.18159     10.49526        -0.051828     -0.128520     -0.082380
O	      8.22139      8.16202     10.32607         0.074055      0.182681      0.097446
