# total energy = -212.74219798 eV
 
CRYSTAL
PRIMVEC
0.002842 6.112195 6.343096 
6.194725 0.026637 6.319192 
4.134561 4.062758 0.013249 
PRIMCOORD
36 1
Li	      6.15088      6.10618     12.54548        -0.047098      0.056476     -0.011653
Li	      8.35576      8.21072     12.61620        -0.134547      0.132113     -0.046272
Li	      4.11822      8.13133      8.32347        -0.052776      0.019358      0.077896
Li	      8.24485      4.05562      4.31198         0.041445     -0.008224      0.022051
Li	      6.22690      2.02734      4.31649         0.019139     -0.023442      0.051268
Li	      2.10720      2.03825      4.15593        -0.009851      0.018122     -0.081539
Li	      6.27049      4.06874      6.29195         0.102183     -0.094818      0.018574
Li	      4.08449      8.15787      4.34888        -0.016410      0.014248     -0.107632
Li	      8.20970      8.18107      8.68248         0.047832      0.026690      0.109177
Mn	      6.25072     10.11494      8.47193         0.056074      0.174044      0.301761
Mn	      4.12690      4.02885      4.21017        -0.089427      0.042314     -0.319404
Mn	      6.15715      6.16423      8.49730         0.019247     -0.146345      0.283044
Cr	      6.20102      2.13772      8.35471        -0.034860      0.026931      0.138643
Co	      8.27869      4.10816      8.35254        -0.030373     -0.233996      0.046509
Co	      4.13557      2.05301      6.31817         0.105528     -0.026870     -0.168691
Co	      8.23210      6.17501     10.59141         0.019009     -0.200092     -0.265879
Cu	      6.15193      8.14045      6.35230         0.019889     -0.022307      0.026502
Ni	      4.15551      6.14041      6.35376        -0.005017     -0.286497     -0.050483
O	      4.24722      8.09143      6.32063         0.192665      0.454737      0.037933
O	      1.97843      2.09509      2.06416         0.103343      0.115989     -0.023886
O	      4.11094      4.13084      2.23258        -0.148785     -0.120436      0.009441
O	      4.07892      2.15296      4.39351        -0.011993     -0.055382      0.042731
O	      6.05186      4.10031      4.07318         0.027429      0.016235      0.136852
O	      6.04063      2.08444      6.41445        -0.091794      0.010710     -0.149567
O	      8.27633      4.21459      6.43733        -0.004144      0.012696     -0.078688
O	      2.18000      4.19068      3.98613         0.032468     -0.070277      0.078398
O	      4.01944      6.00796      4.18093        -0.068085      0.017074      0.078673
O	      4.03116      4.05285      6.12394        -0.108685     -0.127171      0.109331
O	      6.23836      6.16261      6.50971         0.108757      0.186547     -0.214766
O	      6.35841      4.13268      8.43003        -0.014074     -0.053832     -0.112799
O	      8.28454      6.05578      8.29628         0.088559      0.083778      0.365097
O	      2.10864      6.03577      6.49775        -0.173518     -0.123827     -0.648317
O	      4.13948      6.07821      8.47179         0.033658      0.047728      0.064225
O	      6.19835      8.11979      8.58429        -0.001028     -0.023513      0.017380
O	      6.33884      6.10030     10.40890         0.075894      0.073468      0.171650
O	      8.29824      7.97929     10.62705        -0.050654      0.087770      0.092439
