# total energy = -219.51963833 eV
 
CRYSTAL
PRIMVEC
0.055687 6.322726 6.111083 
6.232663 0.034546 6.132400 
4.190856 4.264665 -0.012556 
PRIMCOORD
36 1
Li	      4.23287     10.48145      6.14146        -0.022372     -0.043074     -0.005277
Li	      2.14922      2.13928      0.05435        -0.011938     -0.011086     -0.017505
Li	      4.20252      8.53224      8.01529        -0.007942      0.012129     -0.050703
Li	      2.22807      4.20771      1.96131         0.000685     -0.014355     -0.011040
Li	      4.15847      4.23914      4.08562        -0.048949      0.058280      0.011005
Li	      8.33015      6.43111      6.16086        -0.025793      0.003994      0.070753
Li	      6.29681      8.47293      6.14674         0.018054     -0.034766     -0.020291
Li	      4.22491      6.37494      6.15113        -0.001656      0.005190     -0.010205
Li	      6.31824      6.45745      8.05801         0.024999      0.027779      0.006612
Mn	      4.23042      6.35210     10.20040         0.012624     -0.065290     -0.011304
Mn	      6.23308      4.29488      6.14357        -0.026888      0.042700      0.044482
Mn	      4.24812      8.46921      4.15351         0.017084      0.012674      0.056978
Cr	     10.41360      6.38451      8.12154        -0.094879     -0.021125      0.008433
Fe	      2.08888      6.31330      7.98636         0.041850     -0.020349      0.177539
Fe	      2.15974      2.16599      4.10441        -0.092850      0.079761     -0.066093
Co	      2.09904      6.29848      4.15453         0.123756     -0.045230     -0.063297
Co	      8.38979      8.50577      8.17247         0.025336     -0.019753     -0.119127
Cu	      6.17977      2.14374      4.12514        -0.014569     -0.006290      0.031685
O	      4.22958      8.45176      5.99484        -0.010476     -0.012945     -0.059476
O	      2.02592      2.06069      2.07384         0.017554      0.034520     -0.075698
O	      4.23202      4.35018      2.03972        -0.036089      0.032173      0.048108
O	      4.16174      1.97903      4.00944         0.061152     -0.110456      0.009003
O	      6.38626      4.37273      3.97372         0.125370      0.011550      0.000244
O	      6.24765      2.31401      6.09669         0.014701      0.034634      0.105580
O	      8.22056      4.28994      5.98319         0.064909     -0.000122     -0.033866
O	      1.99102      4.17965      4.05362         0.056176      0.098738     -0.007016
O	      4.24982      6.49828      4.00054        -0.004070     -0.100435      0.008548
O	      4.29033      4.24938      6.25156        -0.020460      0.004466     -0.001306
O	      6.27760      6.26165      6.03419         0.040487     -0.002655      0.089217
O	      6.16833      4.17497      8.27291        -0.019993     -0.015770      0.067682
O	      8.41969      6.54958      8.26602        -0.044534     -0.037710     -0.056071
O	      2.13251      6.32978      6.10799        -0.042231     -0.019332     -0.165231
O	      4.18136      6.19954      8.26002         0.030033      0.001146      0.014900
O	      6.44657      8.53784      8.27873        -0.003695      0.002664     -0.089702
O	      6.18297      6.19269     10.21717        -0.112460      0.031801      0.061298
O	      8.47472      8.58957     10.13326        -0.032926      0.086544      0.051138
