# total energy = -92.38517434 eV
 
CRYSTAL
PRIMVEC
2.062258 2.062018 0.000090 
-4.213858 4.213535 -0.009352 
0.009720 -0.009439 8.303722 
PRIMCOORD
16 1
Li	     -1.05792      3.12047      5.32824        -0.006819      0.008527     -0.014922
Li	     -3.08484      3.08861      7.32759         0.002818     -0.000668      0.011051
Li	      0.96959      1.09684      0.96344        -0.005909      0.006892     -0.007051
Li	     -1.06265      1.06495      2.96524         0.009060     -0.009177      0.014791
Mn	      1.03104      1.03577      5.22328         0.016626     -0.017519      0.043623
Mn	     -3.14873      3.15321      3.07081        -0.015329      0.014205     -0.045293
Ni	     -1.07437      1.07872      7.30678         0.038764     -0.039814     -0.036191
Ni	     -1.04230      3.10895      0.98711        -0.041428      0.039548      0.035259
O	     -1.20862      3.27517      3.18580        -0.020622      0.021241      0.069335
O	     -3.26700      3.27139      5.08946        -0.019533      0.020820     -0.032735
O	      1.02082      1.04563      7.07499         0.097782     -0.096919     -0.106153
O	     -1.07637      1.08075      1.04397         0.117029     -0.120555      0.113360
O	     -1.04040      3.10703      7.24975        -0.118787      0.117376     -0.113837
O	     -3.13744      3.14221      1.21891        -0.098715      0.099918      0.106406
O	     -3.06442      5.13120      3.19527         0.022215     -0.020252      0.033789
O	     -0.90904      0.91388      5.10851         0.022850     -0.023623     -0.071432
