# total energy = -202.47998089 eV
 
CRYSTAL
PRIMVEC
0.037641 6.145001 6.107664 
6.618591 0.027147 6.116520 
4.416934 4.104145 0.017266 
PRIMCOORD
36 1
Li	      6.49880      4.05752      2.08804        -0.063508      0.143104      0.031248
Li	      4.74390      8.27235      8.14955        -0.108548      0.032294      0.013047
Li	      2.31338      4.08394      2.04873         0.032470     -0.028275      0.036451
Li	      4.41153      4.14872      3.94592        -0.004316      0.033860     -0.021344
Li	      6.74685      4.14304      6.13053         0.048542      0.064638     -0.033059
Li	      8.69176      6.07794     10.15610        -0.031830     -0.080847      0.008296
Li	      6.55926      8.22679      6.23138        -0.009632     -0.010289     -0.134274
Li	      8.68755      8.23286      8.27652         0.067400     -0.031601     -0.013865
Li	      6.54443      6.25882      8.18536        -0.029604     -0.097205     -0.016925
V	      4.40029      2.31414      6.20219        -0.094320     -0.115779      0.122694
Fe	      4.40308      6.12920     10.09024        -0.059372      0.132721      0.080598
Fe	      4.18425      6.16637      6.22759         0.005926     -0.094215     -0.146387
Co	      8.76944      2.08296      6.14675         0.000483     -0.054901      0.148900
Co	      0.04296      2.03000      2.02792         0.109440     -0.096492      0.077664
Co	      2.30343      2.15704      4.01658         0.177157     -0.511177      0.089574
Cu	      6.60852      8.23303     10.12647         0.015234      0.067134      0.025150
Cu	      4.47234      8.11081      4.08954         0.163668     -0.071234     -0.020176
Ni	     10.98443      4.08804      6.12978         0.052330     -0.065105     -0.014004
O	      6.66481      8.22461      8.23317         0.047411     -0.031775      0.050912
O	      1.98243      2.08069      1.93374        -0.220265      0.029322      0.302171
O	      4.43136      4.27475      1.98255         0.109951      0.047888      0.175230
O	      4.51697      2.01211      4.21576         0.018213      0.157114     -0.121168
O	      6.79631      4.38879      4.07983        -0.114289     -0.194752     -0.074941
O	      6.37627      2.03675      5.98660         0.023909      0.154684     -0.109854
O	      8.88592      4.01700      6.05116        -0.045292      0.181865      0.067327
O	      2.40173      3.94358      4.07376        -0.259444      0.488397      0.015797
O	      4.60995      6.21143      4.25242         0.191855     -0.153580     -0.057536
O	      4.47398      4.07204      6.12925         0.045125      0.142258      0.025007
O	      7.05274      6.15345      6.16795        -0.051702      0.043734     -0.102060
O	      6.58254      3.90323      8.31924        -0.001782     -0.044315     -0.061672
O	      9.03787      6.15123      7.99187         0.045394      0.050172     -0.009165
O	      2.24561      6.27357      6.06893        -0.024068     -0.184940     -0.007177
O	      4.46162      8.13597      6.01496         0.033297     -0.032553      0.093729
O	      4.49667      6.17663      8.09585         0.071997     -0.022236      0.020489
O	      6.54597      5.89560     10.16123        -0.035647      0.374522     -0.164632
O	      8.59650      8.26034     10.32727        -0.106179     -0.222435     -0.276047
