# total energy = -204.20613951 eV
 
CRYSTAL
PRIMVEC
-0.008009 6.269806 6.290074 
6.189777 -0.020711 6.303696 
4.109711 4.172415 0.002168 
PRIMCOORD
36 1
Li	      2.22088      6.24242      8.40202         0.103171     -0.049167      0.006732
Li	      4.13954      8.21292      8.44582         0.040880     -0.103759     -0.027820
Li	      6.04459      6.21449      4.22645         0.012994      0.004514     -0.054100
Li	      4.17717      4.10465      4.24561        -0.010165     -0.029525     -0.049547
Li	      4.05891      2.19851      6.22123         0.050969      0.001454     -0.009722
Li	      4.02697      8.23511      4.21831         0.016951      0.013860      0.018516
Li	      4.09315      6.28190      6.49856        -0.033638      0.086439      0.127549
Li	      4.10117      4.36394      8.33272        -0.085395      0.108738      0.010007
Li	      6.04260      6.29650      8.38112        -0.085953      0.136328      0.041415
V	      2.04585      4.21311      2.25761         0.187261      0.009165      0.165899
Fe	      4.11560     10.36608      6.26083         0.008400      0.113659     -0.146304
Fe	      6.04032      4.33923      6.26219         0.142030     -0.368670     -0.166505
Co	      2.05648      2.07653      0.02608        -0.065610     -0.022646      0.092666
Co	      6.15244      8.36503     10.28213        -0.142001     -0.091467      1.400634
Co	      4.12811      6.24076      2.10070         0.050681     -0.059330      0.181306
Co	      6.22446      8.25967      6.40861        -0.002448     -0.315961      0.053879
Ni	      4.11056      6.28918     10.42263         0.087236     -0.020392     -0.181720
Ni	      2.09093      6.30659      4.20439        -0.111479      0.031312     -0.027377
O	      4.12736      6.26934      8.45750         0.049129     -0.022513     -0.171746
O	      1.97353      2.21676      2.01099        -0.022020      0.015604     -0.118011
O	      3.90409      4.10728      2.00273        -0.161300      0.023241     -0.003165
O	      4.34160      2.04166      4.23713         0.235084      0.140019     -0.136713
O	      6.18935      4.00121      4.28497        -0.156924      0.138762     -0.047564
O	      6.31921      2.03930      6.47554         0.021693      0.073976     -0.017505
O	      8.23524      4.00307      6.35834        -0.144728     -0.076538      0.084636
O	      2.04332      4.16010      4.03249        -0.013537     -0.081274     -0.083394
O	      4.06580      6.26612      3.92747         0.140111     -0.011183     -0.041679
O	      4.14346      4.17605      6.31523        -0.552106      0.011206      0.090626
O	      6.18718      6.23089      6.21016         0.095373      0.726942      0.066963
O	      6.38581      4.20082      8.30998        -0.065064      0.032363     -0.114986
O	      8.35500      6.05638      8.36821         0.004891     -0.099321     -0.085740
O	      1.99643      6.34146      6.27605         0.100783     -0.225083      0.116889
O	      4.05215      8.41913      6.21175         0.284692     -0.025260     -0.013772
O	      6.21659      8.35480      8.47975         0.007335     -0.026341     -0.764371
O	      6.21290      6.44353     10.56636         0.036829     -0.051620     -0.194502
O	      8.09736      8.34063     10.67536        -0.024125      0.012470     -0.001472
