# total energy = -200.42675992 eV
 
CRYSTAL
PRIMVEC
0.008112 6.230567 6.226086 
6.244910 0.011805 6.222840 
4.169292 4.157310 0.002204 
PRIMCOORD
36 1
Li	     10.34224      4.28432      6.31245        -0.070517     -0.039968     -0.018879
Li	      8.21193      2.17587      6.29145         0.129515      0.038055     -0.043157
Li	      4.10652      2.14548      2.19303         0.078140     -0.036186      0.084273
Li	      6.09107      2.16908      4.24113        -0.108047      0.021296     -0.145572
Li	      2.18376      4.07502      1.99842         0.022760     -0.000743     -0.022784
Li	      2.22214      2.03174      4.11876         0.062527     -0.003471      0.017527
Li	      4.22476      3.99657      4.14807         0.052703     -0.111037      0.019662
Li	      4.17962      2.04868      6.12506        -0.132864      0.005759     -0.108420
Li	      4.22813      6.15887      6.24223        -0.009741     -0.037470      0.077395
V	      4.21482      8.23292      4.32975         0.068723      0.487247     -0.180461
Fe	      2.00875      0.06240      2.05224         0.367322     -0.784709     -0.045394
Fe	      2.05291      6.24817      4.22635        -0.096505     -0.035590      0.119405
Fe	      4.16521      4.16004      8.19280        -0.126746      0.338287      0.142365
Co	      6.27153      4.15956      6.18865        -0.080318      0.426423     -0.173969
Cu	      4.11837      0.11823      4.20971         0.091350     -0.046297     -0.144026
Cu	      6.23031      6.24616      8.25892        -0.099082      0.174579      0.015368
Ni	      6.27724      2.06447      8.21848         0.231422      0.019128     -0.730354
Ni	      2.17752      4.08652      6.19999         0.050085     -0.007710      0.027501
O	      6.22734      6.18302      6.34176         0.044439     -0.199853     -0.119722
O	      2.06085      1.96216      2.04848        -0.620888      0.822920      0.051827
O	      4.26548      4.18391      2.09021        -0.536549      0.220102     -0.050781
O	      4.16952      2.03068      4.13969         0.036135      0.223085      0.060380
O	      6.32374      4.17318      4.21711        -0.333676     -0.032193      0.202974
O	      6.23694      2.25785      6.24010         0.020487     -0.235602      0.961533
O	      8.18738      4.17859      6.15028         0.058725     -0.091429      0.188537
O	      1.91327      4.20352      4.12638        -0.048293     -0.096188     -0.059485
O	      4.12845      6.42661      4.10842         0.113842     -0.280051     -0.211949
O	      4.26572      4.17651      6.25541         0.106823     -0.101408     -0.177132
O	      6.21078      4.16308      8.25642         0.115626     -0.363415     -0.060258
O	      8.35919      6.31471      8.45278         0.693187     -0.202871     -0.127345
O	      2.09897      6.15260      6.15863        -0.044862      0.190077      0.084536
O	      4.20409      8.31481      6.04224        -0.117249     -0.041392      0.244592
O	      4.07348      6.17142      8.39343        -0.060790     -0.028370      0.006958
O	      6.32900      8.35352      8.24781         0.033543     -0.089412      0.087386
O	      6.25474      6.09244     10.28159         0.097207     -0.100331      0.023540
O	      8.53829      8.30657     10.33834         0.011565     -0.001263      0.003928
