# total energy = -206.91426686 eV
 
CRYSTAL
PRIMVEC
0.008305 6.145455 6.158217 
6.301969 0.007256 6.158820 
4.208236 4.104560 -0.002348 
PRIMCOORD
36 1
Li	      4.25611     10.20326      6.16258         0.053478      0.002441      0.072536
Li	      4.14407      0.00661      4.05027        -0.037543     -0.009803     -0.051610
Li	      6.32490      6.06925      4.14996        -0.036486     -0.100632     -0.026638
Li	      4.21157      4.08893      4.13051         0.026380      0.028896     -0.025295
Li	      6.25357      4.16349      6.08238        -0.031847     -0.003420      0.012602
Li	      0.08608      4.19834      4.15194        -0.069313     -0.048582     -0.035127
Li	      2.10019      4.09180      6.12605        -0.009881      0.016961      0.116172
Li	      4.18787      4.20616      8.15706        -0.002631     -0.025528     -0.014801
Li	      6.16611      6.17654      8.18409        -0.040861     -0.001307     -0.021958
V	     10.45814      6.24546      8.24939        -0.133245      0.088552     -0.089033
Fe	      2.19685      8.25640      6.13681        -0.035910     -0.278492      0.052049
Fe	      6.27563      2.07973      4.08055         0.123237     -0.206809      0.095194
Fe	      8.21108      6.24419      6.06262         0.075172     -0.092382      0.141580
Co	      6.32708     10.21842      8.22448         0.043125      0.089841     -0.159544
Co	      4.20484      2.06024      2.07672         0.006548     -0.072432     -0.009950
Co	      2.05774      6.12496      4.16053        -0.009935     -0.355494     -0.052699
Cu	      2.12171      4.11917      2.08796        -0.148698      0.147724      0.046167
Ni	      4.28139      6.08541      6.15795        -0.161480      0.083076     -0.081844
O	      2.08579      1.93726      2.06041         0.065332     -0.056056      0.132897
O	      4.37419      4.09385      2.05843         0.062944     -0.083876      0.044233
O	      4.26852      2.00321      4.07835        -0.076341      0.021892     -0.120422
O	      6.34149      4.00395      3.97921        -0.001176      0.185353      0.186244
O	      6.36064      2.02563      6.30267         0.033822      0.049878     -0.155481
O	      8.41889      4.10521      6.27782         0.057980      0.169616     -0.132084
O	      2.07250      4.24852      3.99864         0.059686      0.263619      0.019122
O	      4.13134      6.11979      3.95258        -0.188194      0.112292      0.037377
O	      4.20639      4.03307      6.17315         0.026988     -0.070033     -0.102989
O	      6.32927      6.13354      6.16617         0.034093     -0.004049     -0.084864
O	      6.32613      3.89174      8.23533         0.034470      0.036354     -0.023670
O	      8.63122      6.16334      8.12332         0.029412     -0.080958     -0.023646
O	      2.19296      6.22086      6.24670        -0.094111     -0.039952     -0.024620
O	      4.16412      8.17611      6.30943         0.112281      0.166529      0.002625
O	      4.09050      6.26918      8.18645         0.020422      0.049735      0.296077
O	      6.13762      8.29484      8.23118         0.055983     -0.007776     -0.006637
O	      6.47826      6.21182     10.21406         0.100624      0.054263     -0.019523
O	      8.35859      8.09839     10.31984         0.055676     -0.029442      0.007561
