# total energy = -211.99318368 eV
 
CRYSTAL
PRIMVEC
-0.044289 6.131764 6.328543 
6.251716 0.007035 6.276499 
4.172190 4.055791 0.000719 
PRIMCOORD
36 1
Li	      0.06309      6.07587      6.16781         0.047002     -0.053646      0.016909
Li	      8.33160      8.09475     12.47760         0.014473      0.001546     -0.024207
Li	      2.11363      6.03709      8.33793        -0.017832     -0.006002     -0.089335
Li	      8.38342     10.10722     10.53899        -0.051570      0.060194      0.044896
Li	      6.29415      4.09679      6.26785         0.004573     -0.027617      0.040242
Li	     10.22392      8.29067     10.57941         0.040046     -0.013797      0.031205
Li	      8.18783      6.19539     10.58207         0.010219     -0.033192      0.113663
Li	      1.99175      4.12951      6.28417         0.036276      0.066503     -0.008189
Li	      8.15159      8.20662      8.56165        -0.049790      0.048895      0.031414
V	      6.26473      2.12119      8.28360         0.194484      0.033825      0.560295
Fe	      4.17949      8.13166      8.27069         0.015482      0.154618     -0.037008
Fe	      6.27110      6.04182      4.27224        -0.083392      0.072771     -0.215293
Fe	      3.98243      6.07069      6.31349         0.096891     -0.151020     -0.155890
Co	      6.26820      8.17624     10.49819         0.035471     -0.010149     -0.275159
Co	      2.11215      4.09953      2.14362        -0.060875     -0.026683     -0.033267
Co	      4.16916      4.04299      4.18816         0.019471      0.062272      0.020833
Co	      8.29413      6.11653      6.33862         0.052953     -0.071100      0.182611
Co	      6.20970      6.11261      8.45438        -0.175642     -0.058040     -0.003344
O	      2.05904      2.14706      2.17223        -0.019555      0.067714     -0.001943
O	      4.06825      4.09150      2.22585        -0.048671     -0.010780      0.025794
O	      4.20750      2.09125      4.20491        -0.016123     -0.021316      0.583481
O	      6.13377      4.04230      4.18856         0.000267     -0.258057      0.052089
O	      6.26576      2.04403      6.50860        -0.531318     -0.050734     -0.304299
O	      8.32134      4.27681      6.49232         0.047598      0.078594      0.018767
O	      2.24429      3.97834      4.07473         0.012383      0.090998      0.021095
O	      4.23771      5.97951      4.11240        -0.051205     -0.025910      0.029120
O	      4.15561      3.98585      6.12696         0.081964     -0.071904     -0.076181
O	      6.18912      6.09417      6.23415         0.807168      0.035670      0.178502
O	      6.41797      4.01611      8.49692         0.027219      0.009245     -0.021657
O	      8.44046      6.06762      8.38737        -0.191179     -0.017586     -0.669994
O	      2.14226      6.07787      6.29533        -0.407084      0.065159     -0.060602
O	      4.09720      8.09606      6.34278         0.048567      0.099383     -0.166449
O	      4.12699      6.15782      8.31158         0.021904     -0.113331      0.125844
O	      6.10820      8.15119      8.42354         0.145981     -0.000623     -0.042363
O	      6.21162      6.27145     10.47911        -0.012579      0.105171      0.113253
O	      8.11887      8.21671     10.52836        -0.043576     -0.031072     -0.004835
