# total energy = -90.04087491 eV
 
CRYSTAL
PRIMVEC
-0.003645 2.165518 2.087220 
8.618604 -4.172507 4.004191 
2.151558 2.037957 -4.053283 
PRIMCOORD
16 1
Li	      2.37711      1.87887      0.19141         0.043221     -0.018363     -0.005303
Li	      4.42718      2.01043     -1.94169         0.025264     -0.020655      0.011339
Li	      4.22858      0.00851     -0.02083         0.003661      0.000342     -0.002856
Li	      6.24986      0.05972     -2.11796        -0.030925      0.036641     -0.021650
Mn	      2.22220      4.12235     -1.92203         0.154724     -0.001418     -0.017191
Mn	      6.43212     -1.97667      4.00071        -0.093669      0.023418     -0.019673
Ni	      6.31635      0.14747      1.95681         0.026290     -0.004897      0.016046
Ni	      8.63499     -2.09215      1.98737         0.020311     -0.039220      0.012676
O	      2.04242      2.17623     -2.08100         0.080351      0.034907     -0.021776
O	      6.71508     -0.02128     -0.03126         0.111344      0.082229     -0.083744
O	      6.59586     -1.98632      2.01626        -0.073944     -0.081527      0.059744
O	      8.75478     -0.01992      1.99723         0.037976      0.077043     -0.061939
O	      8.46602     -2.08260      4.07860         0.003203     -0.080631      0.123752
O	      1.86857     -0.04644      0.02663        -0.151343      0.003553     -0.006429
O	      4.29374      2.00813      0.12406        -0.005111     -0.005083     -0.000964
O	      4.36762      0.18227      1.92656        -0.151352     -0.006340      0.017970
