# total energy = -138.26339139 eV
 
CRYSTAL
PRIMVEC
-2.077947 0.002256 2.046189 
0.002622 -8.415714 -0.007932 
6.325207 -4.203828 6.228678 
PRIMCOORD
24 1
Li	      0.93487     -5.14639      2.99905         0.022459     -0.017634      0.016174
Li	     -1.02000     -7.36269      3.07871         0.000263     -0.000433     -0.001266
Li	      0.98979     -3.00847      4.96216         0.036901     -0.006308      0.002328
Li	      3.18169     -9.46551      5.16991         0.001143     -0.000672     -0.000686
Li	      5.37083     -7.50689      5.38589        -0.040156      0.005683     -0.002480
Li	     -0.89939     -1.16490      1.12007        -0.025424      0.019097     -0.016300
Mn	      1.09734     -7.45278      5.13425         0.025415      0.022801      0.021464
Mn	      5.26551    -11.47845      5.20572        -0.017687     -0.015435     -0.013777
Mn	      3.18013     -5.25770      5.17421        -0.000941     -0.003111     -0.000436
Ni	     -1.02126     -3.15436      3.08275         0.000493     -0.002700     -0.000868
Ni	      1.04709     -9.50987      3.03532         0.022795      0.066939      0.041184
Ni	     -1.00892     -5.21730      1.07603        -0.021963     -0.070396     -0.039483
O	      5.13301     -5.08558      5.09942         0.008111      0.043041      0.003617
O	      3.06064     -7.43757      5.04523        -0.027148     -0.012036     -0.039395
O	      5.14551    -11.57498      7.15289        -0.033055     -0.047206     -0.023893
O	      1.02055     -5.12944      1.04296         0.107559     -0.080507      0.114179
O	      1.11768     -3.13923      2.95961         0.053964     -0.095848      0.109951
O	      1.06142     -9.31829      5.10739         0.091738      0.060404      0.087351
O	      1.22720     -5.42994      5.24890        -0.003215     -0.040519     -0.002826
O	      1.21769     -7.35590      3.18735         0.029695      0.048481      0.023097
O	      3.30001     -3.07788      5.30302         0.021013      0.013316      0.031941
O	      5.30188     -9.61263      5.23292        -0.093374     -0.065515     -0.089654
O	     -1.08229     -3.17221      1.15968        -0.051762      0.097121     -0.105222
O	     -0.98506     -1.18190      3.07623        -0.106822      0.081435     -0.114999
