# total energy = -222.52076703 eV
 
CRYSTAL
PRIMVEC
-0.020817 6.164366 6.271509 
6.216450 -0.020580 6.270615 
4.138947 4.103540 -0.008108 
PRIMCOORD
36 1
Li	      0.04338      6.17973      6.27418         0.042080      0.020333     -0.016881
Li	      2.03788      2.02580      0.03013        -0.012692      0.006505      0.022891
Li	      6.23049      2.02796      4.21209        -0.008361     -0.059598      0.028033
Li	      2.07306      4.08845      2.20380        -0.040287      0.010805      0.084355
Li	      2.04874      2.13536      4.13337        -0.010846      0.032837     -0.084402
Li	      4.00706      4.13108      4.16485        -0.108889      0.026313     -0.017451
Li	      2.09009      6.07662      4.20893         0.016921     -0.022405      0.084323
Li	      2.05143      4.14364      6.16848        -0.047638      0.023803     -0.023744
Li	      4.17755      4.04047      8.34718         0.119141     -0.052124      0.010239
Mn	      6.16032     10.23631      8.31785        -0.154884      0.084837     -0.043586
V	      8.23020      4.03277      4.19238         0.064706      0.114739     -0.019060
Cr	      4.14045      2.09548      6.21429         0.001628     -0.096702      0.003372
Cr	      0.07769      4.12627      4.24246        -0.031306      0.096291     -0.046820
Cr	      4.10032      6.12246      6.22480         0.032804      0.125487     -0.118592
Fe	      6.32058      6.14712      8.38775        -0.032110     -0.006047      0.173180
Co	      4.12514      2.06952      2.05456        -0.100748      0.074773      0.007327
Cu	      6.18874      4.06052      6.26780        -0.008113     -0.031920     -0.068703
Ni	     10.32277      6.16399      8.38735         0.086648     -0.019981      0.117538
O	      2.13688      1.91095      2.07365         0.077131     -0.080563      0.022813
O	      4.27790      4.02377      2.07150         0.057397     -0.167080      0.017516
O	      4.15514      1.90049      4.11913        -0.058254     -0.007870      0.001051
O	      6.32323      4.06008      3.96442        -0.113370     -0.022388     -0.075123
O	      6.11272      2.09448      6.34600         0.029880     -0.090623     -0.182516
O	      8.19410      4.17802      6.11763         0.161180      0.104076      0.192401
O	      2.00576      4.11518      4.19159        -0.048505     -0.033853      0.050836
O	      4.10806      6.23706      4.24165         0.008451     -0.048278      0.049114
O	      4.19905      4.10197      6.25413        -0.033657     -0.029707     -0.005105
O	      6.18914      6.07643      6.37169        -0.037477      0.137130     -0.084738
O	      6.20537      4.14081      8.53408         0.016570      0.088561      0.124297
O	      8.24123      6.17341      8.23073         0.044291      0.004619     -0.108583
O	      2.13362      6.12816      6.40795        -0.001658      0.000229     -0.039131
O	      4.09915      8.12331      6.34514         0.056190     -0.036463     -0.010927
O	      4.07847      6.25258      8.33648         0.010102     -0.022264     -0.015696
O	      6.04055      8.22592      8.34876         0.038867     -0.040175     -0.047171
O	      6.14967      6.14204     10.39065        -0.069563     -0.006383      0.033480
O	      8.32602      8.38516     10.43427         0.054372     -0.076913     -0.014535
