# total energy = -221.59920741 eV
 
CRYSTAL
PRIMVEC
0.041312 6.346758 6.301169 
6.193929 0.050293 6.292084 
4.135364 4.231476 0.027915 
PRIMCOORD
36 1
Li	      6.14712      6.41931     12.46245         0.005876     -0.011565      0.000304
Li	      4.37175      6.36244     10.54426        -0.018526      0.035854      0.019726
Li	      6.28211      8.31162     10.59536        -0.083427      0.069834      0.002870
Li	      8.20310      4.45221      8.38960        -0.006362      0.020421     -0.072379
Li	      4.15180      2.12667      6.24369         0.029394     -0.038797     -0.004228
Li	      6.20540      4.40799     10.37297        -0.072498      0.047869     -0.023400
Li	      4.19181      6.36153      6.24117        -0.034515      0.059154      0.052174
Li	      8.34935      8.39927      8.56817        -0.033020      0.024598      0.010490
Li	      6.35620      6.27381      8.55110        -0.023199      0.029430     -0.032191
Mn	      4.09214      2.16107      2.14961         0.232004     -0.250457     -0.129805
V	      6.36903     10.46194      8.53655         0.037144      0.252110     -0.506586
Cr	      8.29641      8.51565     12.53444         0.000055     -0.031924      0.275878
Cr	     10.27740      6.43011      8.44405        -0.077891     -0.069933     -0.380860
Cr	      2.10567      4.25197      6.24033        -0.160488      0.082165      0.550205
Fe	      6.20327      4.32711      6.39338         0.003565      0.073872     -0.135352
Co	      8.25139      6.44705     10.50406        -0.378273      0.209553      0.329047
Cu	      2.03257      2.20907      4.22203         0.045289     -0.094274     -0.022480
Cu	      4.10865      4.25115      4.22363         0.139022     -0.167017     -0.181326
O	      6.35867      6.40742     10.49466        -0.492678     -0.078220      0.167587
O	      2.00228      1.93761      2.04385        -0.093722      0.151716     -0.154322
O	      4.23690      4.27754      2.20259        -0.180876      0.174017      0.009594
O	      4.00621      2.08128      4.02844         0.177568      0.290765      0.293981
O	      6.19301      4.12304      3.99712        -0.059188     -0.036994      0.649802
O	      6.23706      2.24819      6.37026         0.025307     -0.049460      0.015063
O	      8.17089      4.16171      6.26271         0.019638     -0.022194      0.020063
O	      2.05740      4.45190      4.29170         0.117238      0.016554     -0.067404
O	      4.16357      6.42277      4.13635         0.075322     -0.153482      0.144752
O	      4.15055      4.25398      6.17439        -0.004428      0.013111     -0.068550
O	      6.22973      6.40965      6.23394        -0.040425      0.061412      0.108488
O	      6.18836      4.21893      8.30677         0.021720     -0.069488      0.219013
O	      8.33082      6.41288      8.58584         0.404192     -0.051487     -1.112087
O	      2.09192      6.34045      6.40972        -0.021161     -0.049901      0.435955
O	      4.17550      8.47555      6.52733        -0.012412      0.048607     -0.304634
O	      3.99669      6.40098      8.41038         0.406649      0.089504     -0.020977
O	      6.23774      8.64005      8.31986        -0.125695     -0.444636     -0.177790
O	      8.30980      8.37676     10.60496         0.178802     -0.130718      0.089380
