# total energy = -226.17570824 eV
 
CRYSTAL
PRIMVEC
-0.025768 6.303059 6.342006 
6.061762 0.019334 6.296780 
4.070525 4.201543 -0.016900 
PRIMCOORD
36 1
Li	      2.08264      8.27859      6.28462        -0.122695      0.061860     -0.004343
Li	      2.04704      6.19427      8.33431        -0.006332      0.011884      0.013310
Li	      4.16114      8.35762      8.30179         0.000898     -0.031729      0.017592
Li	      6.08219      8.35699     10.38183        -0.067279     -0.021921     -0.038157
Li	      6.04705      4.24937      6.32939        -0.012223      0.018165      0.003985
Li	      4.05452      8.41280      4.31322         0.056603      0.000902     -0.033561
Li	      1.96910      6.37006      4.34011         0.002657      0.012360     -0.066977
Li	      6.00201      8.47366      6.41098         0.092696     -0.053642     -0.041990
Li	      6.01544      6.43719      8.44496         0.009044     -0.023426      0.038745
Mn	      0.02366      2.08517      2.09135        -0.017246      0.022822      0.119098
V	      8.09597     10.44421     10.49246        -0.163110      0.134213     -0.019230
Cr	      4.11970     10.42472      6.36837        -0.262061      0.156813     -0.018186
Cr	      4.10960      4.18459      4.19084         0.037471      0.039586      0.057540
Cr	      8.04431      8.45483      8.42351         0.160501     -0.105219     -0.242059
Fe	      7.99518      4.18644      8.41918         0.090865      0.122611     -0.022862
Fe	      7.98710      6.35154      6.30766         0.213692      0.067950      0.106012
Co	      2.03132      2.12969      4.18346        -0.007947     -0.073730      0.038625
Cu	      4.01736      6.43317      6.33203        -0.166038      0.088208     -0.012716
O	      2.01961      2.17193      2.22887        -0.131631     -0.112265     -0.050175
O	      4.00663      4.15786      2.12894         0.031156     -0.040046     -0.091967
O	      3.97810      2.13492      4.30348        -0.018048     -0.039584     -0.107137
O	      6.16391      4.36382      4.22031        -0.030398     -0.019712      0.001600
O	      5.99723      1.99471      6.46778         0.125614      0.020512     -0.044316
O	      8.12342      4.28137      6.31335         0.066792     -0.113720      0.027815
O	      2.11931      4.08368      4.10813        -0.088333      0.027416      0.093983
O	      4.16513      6.18349      4.02434        -0.048089      0.046148     -0.098761
O	      4.06133      4.17784      6.26189        -0.010478      0.011580      0.000860
O	      6.01738      6.33253      6.10643        -0.126420     -0.020165     -0.079823
O	      6.06111      4.23426      8.41015        -0.076229      0.066855      0.001264
O	      8.08467      6.34464      8.34924         0.134618     -0.049905      0.118572
O	      2.02323      6.32039      6.27308         0.158533     -0.020300      0.158857
O	      4.01987      8.44161      6.30050         0.092188     -0.131624      0.002368
O	      4.04855      6.24119      8.60926        -0.024650     -0.038333      0.169982
O	      6.13915      8.39456      8.42715        -0.070666      0.005864     -0.014704
O	      5.86260      6.37030     10.69450         0.161203     -0.046780     -0.003347
O	      8.04572      8.54963     10.42357         0.015341      0.026354      0.020103
