# total energy = -222.74507273 eV
 
CRYSTAL
PRIMVEC
0.007036 6.324126 6.266617 
6.229100 0.021069 6.252579 
4.168714 4.222772 -0.001985 
PRIMCOORD
36 1
Li	      8.31417     10.45698     10.38931        -0.018300     -0.011951     -0.034511
Li	      6.33032      8.45311     10.43416        -0.012438      0.002730     -0.009643
Li	      6.22749      2.34319      8.45203         0.000427     -0.013577      0.006399
Li	      8.10545      4.22155      8.49378         0.011130     -0.020845      0.086509
Li	      6.14907      6.31747      4.15082         0.022369     -0.000661     -0.020426
Li	      6.19446      4.19943      6.37424        -0.031251     -0.053451      0.045041
Li	      6.20954      4.21552     10.27093        -0.020310      0.014676      0.008797
Li	      8.35608      6.40366     10.33801         0.015530      0.009009     -0.060937
Li	      6.25723      6.17021      8.49752         0.008233     -0.008461      0.049463
Mn	      4.18306      2.08003      2.16217        -0.023879     -0.014690      0.059973
V	      8.27382      6.19494      6.29962        -0.032518     -0.013703      0.084749
Cr	      8.28439      8.47589     12.43611        -0.044358      0.077216     -0.020683
Cr	      6.24782      4.24351      2.13396        -0.004732      0.058206      0.063032
Cr	      4.19551      4.27417      4.18822        -0.063632      0.030404      0.021710
Fe	      6.25183      6.35963     12.26300        -0.026543     -0.019516      0.121975
Fe	      2.06745      4.18799      6.15565         0.003239      0.054550      0.044968
Ni	      4.21307      6.32632      6.19911         0.042792      0.012596      0.005717
Ni	      4.25575      4.24629      8.45911        -0.086678      0.001770     -0.001832
O	      6.19894      4.25142      8.32737         0.121161     -0.002105     -0.014846
O	      2.21124      2.05083      1.98606         0.034613     -0.028173     -0.033458
O	      4.22520      4.05091      2.15883         0.011392     -0.034009     -0.058820
O	      4.18637      2.21944      4.41660         0.021085      0.007082     -0.022228
O	      6.17885      4.24614      4.08218         0.059338      0.001014     -0.056831
O	      6.18790      2.02659      6.29164         0.045877      0.021140      0.002582
O	      8.34810      4.33301      6.25408        -0.004449     -0.078474     -0.005732
O	      2.15991      4.24716      4.27769         0.064114     -0.043258     -0.103605
O	      4.17850      6.23123      4.22710         0.006615     -0.037348     -0.140355
O	      4.11240      4.18530      6.24809         0.018660     -0.056830     -0.042525
O	      6.40498      6.39123      6.26125         0.050114     -0.032974     -0.004867
O	      8.34313      6.42703      8.08580        -0.013829     -0.109143     -0.098393
O	      2.05429      6.39974      6.33521        -0.039561     -0.002000      0.032399
O	      4.14271      8.47371      6.21965        -0.017829      0.092499      0.032301
O	      4.11311      6.41787      8.28444        -0.032152      0.140778      0.056564
O	      6.19571      8.53570      8.22204        -0.054434      0.026072      0.010738
O	      6.24328      6.37097     10.45782        -0.010487      0.034067     -0.149329
O	      8.29614      8.47117     10.50154         0.000694     -0.002643      0.146104
