# total energy = -228.31698924 eV
 
CRYSTAL
PRIMVEC
0.012168 6.282177 6.185331 
6.361454 0.018485 6.178984 
4.251394 4.194242 0.002198 
PRIMCOORD
36 1
Li	      8.43784      2.16176      6.17578        -0.048654      0.033094      0.025606
Li	      6.33345      4.21472      2.17436        -0.050450     -0.010657     -0.004975
Li	      6.30818      2.19960      4.12570        -0.020823     -0.021426      0.001764
Li	      6.45767      6.19252      4.10313        -0.001413     -0.048437      0.051726
Li	      4.38083      4.08103      4.16485         0.032416     -0.051387     -0.039639
Li	      4.34087      2.14895      6.05614         0.023296     -0.015050      0.020117
Li	      6.25001      4.16100      6.09331        -0.092051      0.028798      0.006210
Li	     10.58443      8.42112     10.32241        -0.008491      0.031693     -0.012354
Li	      8.46360      8.42055      8.24052        -0.021404      0.021970     -0.039516
Mn	      0.06497      2.10693      2.08921        -0.060301      0.081558      0.030313
V	      6.35533      6.30143      8.26574        -0.020004     -0.018643     -0.180675
Cr	      0.01549      6.28120      6.18364        -0.025495     -0.024370     -0.032995
Cr	      2.14135      4.18513      2.07495        -0.100806      0.040090      0.023853
Cr	      4.24820      6.29063      6.15154         0.073744     -0.069866      0.015460
Fe	      8.29259      4.19762      4.20210         0.121239     -0.131469     -0.009747
Fe	      8.50306      6.48578     10.30125         0.063206     -0.059932      0.010523
Fe	      2.21029      4.14575      6.04027         0.020886     -0.062413      0.178388
Ni	      4.21429      2.08241      2.12061         0.031563     -0.030832      0.017181
O	      2.04111      2.20249      2.08432        -0.091929      0.005651      0.008042
O	      4.16357      4.12952      1.99734         0.037324      0.169288     -0.037111
O	      4.24173      1.95650      4.09844         0.035102      0.055498      0.125698
O	      6.42567      4.16098      4.12001        -0.201868     -0.012313     -0.010459
O	      6.37727      2.00214      6.36534         0.035001     -0.037287      0.052440
O	      8.63404      4.19282      6.20236         0.093596     -0.014063      0.102992
O	      2.12605      4.29608      4.09606        -0.029335      0.056316     -0.146484
O	      4.15267      6.35224      4.10059         0.052357      0.044909     -0.118870
O	      4.15674      4.30407      6.17711         0.077941      0.031429     -0.023316
O	      6.24969      6.33497      6.24220        -0.049249     -0.013176     -0.016090
O	      6.48158      4.40246      8.19931         0.092476     -0.198336     -0.004103
O	      8.48560      6.26205      8.28533         0.141776     -0.067654     -0.038891
O	      2.14494      6.22670      6.16270        -0.064304      0.047494      0.038973
O	      4.38014      8.38234      6.23488        -0.063417      0.047482     -0.105018
O	      4.36745      6.27541      8.21072        -0.014429     -0.059383     -0.058167
O	      6.38425      8.15228      8.18103         0.041871      0.160360     -0.059140
O	      6.43022      6.31090     10.28243        -0.027899      0.021868      0.200176
O	      8.50644      8.41896     10.30197         0.018529      0.069196      0.028087
