# total energy = -225.74778940 eV
 
CRYSTAL
PRIMVEC
0.008521 6.127266 6.204588 
6.419869 -0.002117 6.215944 
4.281870 4.094868 -0.003264 
PRIMCOORD
36 1
Li	      2.12926      8.07903      6.17427         0.004271     -0.006342      0.007257
Li	      6.51188      8.12840     10.35770        -0.001692     -0.004744      0.007814
Li	     10.53416      6.13226      8.29909        -0.076535      0.038125     -0.022376
Li	      8.55858      4.20832      8.34276        -0.043520     -0.074415      0.022954
Li	      6.36407      6.14761      4.09091        -0.025337      0.021914     -0.059400
Li	      8.55530      6.16544     10.24593         0.023124     -0.000890      0.033706
Li	      4.22646      6.12009      6.14062        -0.032161     -0.006552      0.029079
Li	      8.51669      8.03392      8.36693         0.017423      0.130877     -0.014448
Li	      6.62014      6.16154      8.34165        -0.032451      0.000543      0.005884
Mn	      2.18070      6.16650      8.25049         0.023921     -0.132284     -0.039804
Mn	      4.24099      4.16608      4.10688         0.031356      0.044745     -0.015363
V	      6.51248      4.10091      6.33342        -0.034816     -0.092711      0.190588
Cr	      4.27477      8.16688      8.26418         0.099766     -0.030458     -0.086616
Cr	      4.28246      8.12041      4.08382        -0.107459      0.050810     -0.010889
Cr	      2.14203      4.05868      6.17349        -0.012886      0.044967      0.092736
Fe	      8.60138     10.15303     10.34098         0.029426      0.060100      0.029037
Ni	      6.46291      0.07561      6.20761        -0.045989      0.054560      0.002565
Ni	      8.57727      6.16773      6.27845         0.040969      0.008183     -0.065724
O	      8.55074      6.13844      8.21921         0.018188     -0.009854      0.113182
O	      2.29521      1.91779      2.01842         0.002999      0.059111      0.053313
O	      4.37160      4.06781      2.11557        -0.009435      0.005087      0.109056
O	      4.30711      2.13072      4.08997        -0.007040      0.003311     -0.014226
O	      6.52477      4.09959      4.34796        -0.067264      0.013545     -0.079654
O	      6.37130      2.18865      6.23335         0.061048      0.013158      0.000284
O	      8.42916      4.11216      6.20911         0.037744     -0.087375      0.036408
O	      2.02588      4.04668      4.19239         0.054959     -0.032628     -0.028392
O	      4.28677      6.09733      4.10341         0.020750     -0.072842      0.001413
O	      4.29134      4.10775      6.07345        -0.100379      0.115688     -0.025261
O	      6.48334      6.03208      6.27523        -0.099667      0.110241     -0.071566
O	      6.41389      4.07580      8.17654         0.039989      0.039528     -0.066674
O	      2.07695      6.04041      6.18344         0.129346     -0.016365      0.005592
O	      4.41154      8.19221      6.17656         0.010738     -0.134970      0.068222
O	      4.18164      6.18041      8.36543        -0.018381      0.009191     -0.097135
O	      6.34189      8.29014      8.19934        -0.012401     -0.002553     -0.010072
O	      6.30471      6.06125     10.39692         0.036440     -0.005951     -0.104876
O	      8.68503      8.22334     10.35560         0.044954     -0.112753      0.003386
