# total energy = -210.54570026 eV
 
CRYSTAL
PRIMVEC
0.014238 6.236708 6.379352 
6.164035 0.034031 6.359607 
4.121668 4.157179 0.010744 
PRIMCOORD
36 1
Li	      2.15200      6.28289      8.50491         0.009962     -0.030525      0.026726
Li	      4.15442      8.22037      8.41875         0.060747     -0.041667      0.029438
Li	      6.20296      2.05955      4.34893        -0.008450      0.008978     -0.011751
Li	      6.18314      2.20653      8.41250        -0.041977      0.008523      0.043950
Li	      8.03398      4.15650      8.45955        -0.025093      0.046039      0.018416
Li	      8.25615      6.23367      6.40718         0.045231     -0.016792      0.033934
Li	      6.12755      4.25425     10.61823         0.030079      0.004420     -0.026673
Li	      6.17130      8.24110      6.42117        -0.009325      0.038664      0.009822
Li	      6.17161      6.25674      8.44215        -0.011743      0.001982      0.068112
V	      4.17271      4.05721      3.90985         0.003964      0.076387     -0.003909
V	      8.19245      6.24598     10.52686        -0.077093      0.143787      0.019520
V	      4.05919      4.31914      8.47540         0.008335      0.046936      0.017102
Fe	      2.06044      2.11798      0.24825         0.029640     -0.101660     -0.201406
Co	      2.01597      2.13418      4.19325        -0.047766      0.108586     -0.035866
Cu	      4.17219      6.33721      6.33886        -0.026381     -0.068860      0.050594
Ni	      0.04071      6.23618      6.39430         0.009476      0.117087      0.191957
Ni	      4.17715      0.03618      4.31304        -0.024598      0.055527     -0.055307
Ni	      6.16185      4.18601      6.42091        -0.027497      0.003316     -0.001146
O	      2.07008      2.08236      2.17377        -0.007918     -0.024280     -0.337851
O	      4.18590      4.08103      2.18071         0.010196     -0.041848      0.148796
O	      4.08688      2.25446      4.27264         0.213082      0.076434     -0.062118
O	      5.98046      4.18042      4.29858        -0.028207     -0.174794     -0.158717
O	      6.26151      2.09594      6.40030        -0.035709     -0.044869      0.022571
O	      8.23534      4.15241      6.32591         0.017282      0.027862      0.108523
O	      2.23589      4.23903      4.21146         0.034658      0.032772     -0.061243
O	      4.05488      5.98305      4.16214        -0.224457     -0.153819     -0.201934
O	      4.11786      4.21996      6.60819        -0.094311     -0.022742     -0.069547
O	      6.09777      6.23349      6.19240        -0.047119      0.032391      0.494579
O	      5.99006      4.19868      8.48238        -0.088869      0.043528      0.086484
O	      8.20980      6.36156      8.68085         0.026343      0.053025      0.020945
O	      2.13843      6.32809      6.17724         0.078351     -0.015405     -0.055376
O	      4.06934      8.31744      6.39522         0.034221      0.030160      0.022627
O	      4.11946      6.14706      8.70265         0.006748     -0.081319     -0.001905
O	      6.38913      8.33927      8.49589         0.048728     -0.017192     -0.005421
O	      6.25838      6.25667     10.71076         0.155724     -0.004360     -0.125180
O	      8.25185      8.29102     10.50222         0.003747     -0.116271      0.001256
