# total energy = -216.01807369 eV
 
CRYSTAL
PRIMVEC
0.010175 6.523214 6.128671 
6.168062 -0.003275 6.144449 
4.094153 4.340787 0.015054 
PRIMCOORD
36 1
Li	      2.02040      0.13068      2.07631         0.085605      0.015678      0.013847
Li	      4.07545      2.20458      2.06386         0.057805      0.001210     -0.036660
Li	      8.14460      4.39294      4.15595        -0.036208     -0.048265     -0.079240
Li	      4.13323      6.46713      2.18593         0.023234     -0.053655     -0.088997
Li	      4.07129      4.46760      4.17905         0.039658     -0.052770      0.062503
Li	      6.15805      4.43427      6.10984        -0.009448     -0.016761     -0.037252
Li	      4.19552      8.49523      4.11695        -0.045156      0.101284      0.057034
Li	      2.21132      6.47058      4.06908        -0.128760      0.018972      0.027184
Li	      2.11009      4.20194      5.99390        -0.014285      0.016282      0.000656
V	      0.12700      6.43111      6.07708        -0.039299      0.065420     -0.019884
V	      6.08815      2.31207      4.06100         0.259863      0.102159      0.222476
V	      4.19532      4.31074      8.14073        -0.243000     -0.137692      0.102619
Fe	      2.07768      4.31120      2.16091        -0.041880      0.154808     -0.238696
Co	      8.16751      2.25212      6.16310        -0.052286      0.033695     -0.133251
Co	      8.21836      6.49746      6.16230         0.023852      0.015513      0.119677
Co	      6.13594      6.48660      8.23023        -0.097191      0.055021      0.063595
Cu	      2.09068      2.19737      4.10038         0.016659     -0.015891     -0.069019
Cu	      4.10264      6.47930      6.10575        -0.031719     -0.122207     -0.034994
O	      2.06338      2.30807      2.04954        -0.073392     -0.061968     -0.093920
O	      4.06769      4.40053      1.83894         0.149659      0.002525      0.011477
O	      4.11368      2.12104      4.19807        -0.123542     -0.013336     -0.037577
O	      6.12377      4.07829      4.10213        -0.108264     -0.131789     -0.052348
O	      6.08358      2.03779      6.06582        -0.018617     -0.016987     -0.031238
O	      8.29555      4.47004      6.23345        -0.128548      0.044800      0.017550
O	      2.08156      4.48879      4.00295         0.018854      0.053133      0.219708
O	      4.23362      6.49966      4.23306        -0.054113      0.059690     -0.036208
O	      4.10583      4.08788      6.24009        -0.009656     -0.025571      0.021736
O	      6.25492      6.45232      6.14179        -0.032635     -0.064702      0.070336
O	      6.05417      4.35679      8.23387         0.072562     -0.077062      0.012362
O	      8.22723      6.57992      8.12046        -0.100287     -0.024092     -0.174164
O	      1.91729      6.62971      6.12168         0.171675      0.045186      0.004160
O	      4.06333      8.98962      6.07237         0.086118      0.018284      0.071446
O	      4.07129      6.31083      8.01667         0.059521     -0.035340      0.133497
O	      6.24827      8.57623      8.25306         0.130404      0.025257     -0.014282
O	      6.09176      6.69073     10.36063         0.051414     -0.003358      0.018126
O	      8.07930      8.66162     10.19645         0.141398      0.072533     -0.072259
