# total energy = -215.93488447 eV
 
CRYSTAL
PRIMVEC
-0.028425 6.396417 6.203295 
6.300715 0.000416 6.174164 
4.195097 4.239417 0.005479 
PRIMCOORD
36 1
Li	      8.35676      8.50833     12.26868        -0.012270     -0.020831      0.022487
Li	      6.27153     10.48122      8.28619         0.042834     -0.081039     -0.051265
Li	      4.28505      8.49158      8.29535         0.084381     -0.027803     -0.042866
Li	      8.43725     10.53428     10.33259        -0.072546     -0.004195     -0.047250
Li	      8.40466      6.34552      6.19584        -0.032777      0.028949      0.009332
Li	     10.25969      8.66303     10.29224        -0.009107     -0.072000     -0.007728
Li	      8.25436      6.54990     10.30369         0.018901      0.050728      0.009650
Li	      8.27809      8.48448      8.40458        -0.082735      0.008445     -0.052284
Li	      6.31929      6.48849      8.39765         0.003637      0.070940     -0.095225
V	      8.35686      4.29344      8.16964        -0.123839      0.001339      0.214789
V	      6.25447      2.17112      8.16520         0.001273      0.142310      0.013513
V	      4.09755      6.46592      6.39614         0.097569     -0.021155      0.124065
Fe	      2.18743      2.06575      4.07803         0.016306     -0.067071      0.162553
Fe	      4.24297      4.20281      4.11553         0.023185      0.002311      0.201451
Co	      6.32015      8.46560     10.24787        -0.179492      0.479374      0.032085
Co	      6.30143      8.46264      6.28833         0.125276     -0.206346      0.334152
Cu	      0.00219      6.32616      6.10574        -0.040229     -0.083462     -0.052494
Ni	      6.26360      4.29169      6.21641        -0.071206      0.053963     -0.025330
O	      2.00722      2.24062      2.09434         0.023356     -0.002516     -0.116000
O	      4.11976      4.35406      2.06672         0.049276     -0.086339     -0.349313
O	      4.21516      2.20411      4.14137        -0.239755     -0.049896      0.067348
O	      6.26803      4.23083      4.12730        -0.005400      0.319507     -0.020093
O	      6.27341      2.24972      6.32679        -0.008908     -0.223056      0.467506
O	      8.30696      4.26936      6.37273         0.283662     -0.012606     -0.138756
O	      2.20554      4.12669      4.03905        -0.042775      0.092601      0.064289
O	      4.29738      6.26447      3.98131        -0.016074     -0.034166     -0.005838
O	      4.21645      4.44986      6.11444        -0.037827      0.004320     -0.008523
O	      6.12567      6.34475      6.08691        -0.036386     -0.023115     -0.008197
O	      6.36696      4.16451      8.31225         0.054796     -0.010107      0.045152
O	      8.49408      6.25332      8.27683        -0.002725     -0.020887      0.027005
O	      2.32956      6.30582      6.15178        -0.180361      0.125555     -0.023122
O	      4.21192      8.24386      6.11288        -0.041521      0.210390      0.000486
O	      4.18432      6.39871      8.11570        -0.007766      0.025613     -0.024838
O	      6.25942      8.50316      8.30556        -0.170091      0.170230     -1.505091
O	      6.25505      6.57011     10.33804        -0.024746     -0.804605      0.597052
O	      8.19153      8.53580     10.33560         0.614084      0.064620      0.181299
