# total energy = -205.08137890 eV
 
CRYSTAL
PRIMVEC
-0.081293 6.352488 6.175915 
6.124956 -0.020431 6.113609 
4.084288 4.193846 -0.014210 
PRIMCOORD
36 1
Li	      4.03080     10.46980      6.20854         0.024661      0.015667      0.049041
Li	      2.00027      8.37079      6.13893        -0.099669     -0.024638      0.132007
Li	      1.96521      6.28794      8.09281        -0.065441      0.100195     -0.032934
Li	      6.10310      8.40491     10.11632        -0.006402     -0.019636      0.046489
Li	      2.01617      4.11978      2.08171         0.010039     -0.042779     -0.013455
Li	      6.02845      8.50738      6.20354        -0.011229     -0.014616      0.023679
Li	      3.98180      6.38868      6.24947         0.026712      0.022265     -0.040791
Li	      3.95573      4.30047      8.19680         0.065860     -0.032344      0.008702
Li	      5.96088      6.49934      8.20341         0.092873     -0.067627     -0.055628
Ti	      8.14182      6.30111      6.24900         0.228985     -0.122442      0.767108
Fe	      4.04353      4.22023      4.07159         0.012260      0.261375     -0.502007
Fe	      7.95154      6.39651     10.33440         0.223906     -0.098052     -0.386174
Co	      8.07713     10.49645     10.19807         0.081285      0.018908     -0.199207
Co	      0.04319      2.09732      2.05083        -0.381985     -0.088515     -0.160074
Co	      2.03545      2.14234      4.10103        -0.251853      0.003693     -0.344832
Cu	      4.10268      8.37552      8.05417        -0.414452      0.186794      0.244117
Ni	      6.12880      4.20347      6.18214         0.070274     -0.025496      0.107096
Ni	      4.01675      8.41193      4.13781         0.036253     -0.065794     -0.127918
O	      3.98882      8.41891      6.17306        -0.011394      0.011405     -0.198217
O	      5.97748      8.46793      8.19367         0.184872     -0.006166      0.023238
O	      1.90321      2.10321      2.17945         0.698747      0.084283      0.233862
O	      4.06349      4.35407      2.11004         0.035659     -0.280421      0.250994
O	      3.97489      2.20140      4.09012        -0.029786     -0.146285      0.063784
O	      6.15453      4.39987      4.11826         0.013775      0.034413      0.129147
O	      6.06626      2.11879      6.24104        -0.203452     -0.007005     -0.166782
O	      8.17503      4.33059      5.94187        -0.102273      0.003224     -0.049425
O	      2.03872      4.15147      4.10444        -0.057527     -0.049261      0.104363
O	      4.14681      6.27980      3.98862         0.016868     -0.101605      0.089402
O	      4.09713      4.07842      6.07136         0.136943     -0.011252      0.023809
O	      6.19564      6.27915      6.06397         0.161419      0.034019      0.059449
O	      6.10496      3.93310      8.19933         0.024688      0.240253     -0.068157
O	      8.24718      6.23543      8.15090        -0.320780      0.064833     -0.391195
O	      2.01072      6.32284      6.03396        -0.015638     -0.051123      0.159595
O	      3.99919      6.41037      8.33954         0.020597     -0.080342      0.143083
O	      6.01917      6.23633     10.19289        -0.184525      0.064185      0.007512
O	      8.10495      8.34589     10.18599        -0.010273      0.189887      0.070315
