# total energy = -205.82677841 eV
 
CRYSTAL
PRIMVEC
0.065765 6.143117 6.227570 
6.315367 0.051625 6.240748 
4.214598 4.108309 0.031046 
PRIMCOORD
36 1
Li	      6.48877      6.23824     12.37594         0.013637     -0.049708      0.120122
Li	      2.21851      6.11326      8.27502        -0.021476      0.036664      0.055290
Li	      6.35508      2.11839      4.22255         0.015579      0.085824     -0.039840
Li	      6.32007      6.17370      4.35285        -0.000709     -0.052183     -0.019907
Li	      6.30456      4.10669      6.18836         0.008863      0.006545     -0.053736
Li	      2.15781      6.14868      4.26608         0.077679     -0.037627      0.033734
Li	      2.17668      4.15402      6.15449        -0.035758      0.031401      0.003669
Li	      4.16317      6.16108      6.19895        -0.021701      0.020443      0.014870
Li	      4.23143      4.12006      8.21729        -0.021726      0.013542     -0.101918
Ti	      6.29984      6.26557      8.21819        -0.272605      0.448077     -0.678140
Fe	      2.12286      4.10295      2.13941         0.236638     -0.247369     -0.062209
Fe	      4.40887      4.17395      4.24817        -0.108388      0.059136     -0.431051
Co	      2.22469      8.14571      6.23912         0.020622     -0.006859      0.079324
Co	      4.29976      8.20791      8.29653         0.119042      0.186801      0.040406
Co	      4.24738      8.19132      4.20810         0.143321     -0.153224     -0.133870
Cu	      8.37045      4.14410      4.24484        -0.101023     -0.106459     -0.116031
Cu	      0.05124      2.05255      2.05501         0.037852     -0.199097     -0.012002
Cu	      4.23369      2.08742      6.18217        -0.045753     -0.108847      0.077151
O	      2.18883      6.32601      6.24842         0.016911      0.043415     -0.085655
O	      8.60178      8.28569     10.55257         0.062591     -0.022693     -0.037471
O	      2.31253      2.10108      1.92911         0.322502     -0.186415     -0.037582
O	      4.16414      4.01411      2.22536        -0.073058     -0.052457     -0.191280
O	      4.22801      2.07468      4.21485        -0.077484     -0.153916     -0.581214
O	      6.31651      4.13748      4.18225         0.493246     -0.058983     -0.053411
O	      6.58965      2.10865      6.37945         0.145506     -0.008043      0.028509
O	      8.44353      4.11105      6.29845         0.067206      0.140242     -0.033975
O	      2.01246      4.09564      4.08862        -0.211574      0.043259      0.217945
O	      4.23070      6.17270      4.03728        -0.081029      0.375649      0.082630
O	      4.20743      4.05199      6.13294        -0.125570     -0.069470      0.646180
O	      6.18301      6.13282      6.39319         0.034867      0.026272      0.478913
O	      6.37078      4.16396      8.47411        -0.181792      0.133212      0.110759
O	      8.31900      6.14781      8.21391        -0.277526      0.281750      0.157300
O	      4.11973      8.22386      6.15796        -0.098968      0.000087      0.523789
O	      4.30543      6.26901      8.41705         0.272731     -0.030728     -0.049143
O	      6.27365      8.16010      8.33753        -0.181735     -0.350911     -0.006631
O	      6.29422      6.05008     10.32193        -0.150920     -0.037332      0.054475
