# total energy = -214.97576834 eV
 
CRYSTAL
PRIMVEC
0.018231 6.156928 6.221233 
6.162768 0.000838 6.238397 
4.121547 4.128868 -0.012562 
PRIMCOORD
36 1
Li	      6.22969      6.18163     12.42194         0.003233     -0.040913      0.045206
Li	      8.14697      2.03128      6.25620         0.000411      0.015559      0.021546
Li	     10.25576      6.20379      8.29296         0.000942      0.013845     -0.019830
Li	      6.16094      6.17634      4.15321        -0.018946      0.057109     -0.016375
Li	      4.06197      4.24137      4.10145         0.020285      0.022119     -0.013267
Li	      6.17654      4.09116      6.15244         0.001262     -0.005995      0.026324
Li	      2.08220      6.15330      4.23621         0.005608      0.006886      0.033384
Li	      2.07824      4.13629      6.16003        -0.020597      0.015430     -0.048217
Li	      6.21308      6.15768      8.30512        -0.015319     -0.038078      0.000632
Ti	      4.09337      2.06452      6.21496         0.066025     -0.046767      0.131391
Fe	      2.00326      0.03586      2.06139        -0.035638      0.069772     -0.037207
Fe	      4.16561      8.24074      8.25383         0.007680     -0.062759      0.011751
Fe	      8.13529      4.09679      8.35136         0.009974      0.034476     -0.167032
Fe	      4.19762      6.14718      6.12934         0.039805     -0.000447      0.052935
Co	      8.24329     10.24891     10.40025        -0.018506     -0.019503     -0.098319
Co	      4.16329      8.23696      4.18684        -0.174473      0.728738     -0.418248
Co	      4.14941      4.08395      8.31190         0.018370     -0.020075     -0.044914
Ni	      6.20818      8.19486     10.41125         0.035071     -0.115060      0.021534
O	      2.13956      2.07987      2.06370        -0.075351     -0.018871      0.022739
O	      4.10961      4.04535      2.09658        -0.060999      0.153447      0.039848
O	      4.13964      1.92429      4.14328        -0.104274     -0.000257      0.069447
O	      6.28509      4.09094      4.05820         0.105666      0.095455      0.100012
O	      6.02457      2.05243      6.18496        -0.228735     -0.023370      0.109275
O	      8.19105      4.20351      6.21180         0.012308      0.100790      0.027181
O	      2.05020      4.19216      4.01115        -0.372154     -0.108522      0.324891
O	      4.12564      6.33529      4.19653         0.054057     -0.109998      0.109375
O	      4.13273      4.09892      6.32896         0.008710     -0.131536      0.042307
O	      6.22794      6.17931      6.19361         0.221228      0.020951      0.016446
O	      6.11539      4.09453      8.38219        -0.107161     -0.014500     -0.138394
O	      8.22293      6.22456      8.17899         0.002684      0.011668     -0.179563
O	      2.18902      6.16717      6.33406        -0.008108     -0.005460     -0.091391
O	      4.18317      8.14508      6.29914         0.038853     -0.034549      0.093416
O	      4.12339      6.08486      8.41796         0.024860     -0.020298     -0.081892
O	      6.24465      8.25536      8.35682         0.109136     -0.083065     -0.058252
O	      6.05649      6.04291     10.42162        -0.092823     -0.399459      0.122191
O	      8.24026      8.31359     10.23289         0.546918     -0.046765     -0.008930
