# total energy = -231.45735313 eV
 
CRYSTAL
PRIMVEC
-0.000048 6.218783 6.157983 
6.494516 -0.001379 6.158939 
4.318267 4.134325 0.011084 
PRIMCOORD
36 1
Li	      2.30353      6.20862      8.29586         0.072109     -0.012270     -0.005971
Li	      4.43608      8.11332      8.34364         0.076183      0.053935     -0.066122
Li	      4.21366      0.15635      4.06449        -0.011573     -0.083519      0.001267
Li	      6.37142      2.12444      4.07954         0.023629     -0.018868     -0.002429
Li	      6.60702      6.08924      4.16806         0.006018      0.046185     -0.037756
Li	      4.25256      2.09633      6.04136         0.014798      0.048129      0.038983
Li	      6.48825      4.24685      6.04602         0.010443     -0.017899      0.018581
Li	      2.15155      6.23367      4.15189        -0.025789      0.038276     -0.038017
Li	      4.44062      6.15363      6.20823         0.048768      0.026927      0.028877
Ti	      8.66373      4.19825      8.26504         0.006558      0.040615      0.074998
Mn	      8.62066      8.25065     12.28737        -0.029022      0.010421     -0.096786
Cr	      6.48615      6.24231     12.25567         0.040738     -0.049742     -0.019909
Cr	      6.45025      2.11249      8.17307        -0.100610      0.057796      0.098367
Cr	      6.49737      8.25502      6.18440         0.085937      0.103161      0.021063
Fe	      4.54447      4.03177      4.18709        -0.181928      0.303194     -0.009511
Fe	      4.25323      8.23383      4.14727        -0.022657     -0.052233     -0.076460
Co	      8.59143      8.35702      8.24985        -0.001031      0.051144     -0.091312
Co	      6.41614      6.24710      8.22216        -0.004398     -0.040187      0.014365
O	      1.99802      2.18793      1.92741        -0.054550      0.024645     -0.015897
O	      4.14881      4.24019      2.03241        -0.138279     -0.030881      0.010996
O	      4.29440      2.17325      4.08129        -0.038734     -0.188167     -0.010693
O	      6.41169      4.15105      4.08994         0.202973      0.026898      0.006210
O	      6.47646      1.99555      6.19663        -0.050501      0.054221     -0.033997
O	      8.76725      4.04379      6.25745        -0.039932     -0.061260      0.003299
O	      2.12300      4.11709      4.04666         0.010509      0.015344     -0.097973
O	      4.30908      6.23923      4.01152        -0.045858     -0.126878     -0.013578
O	      4.17173      4.18224      6.14170         0.054426      0.015509      0.257538
O	      6.47882      6.29104      6.32625         0.039758     -0.070321      0.042792
O	      6.60760      4.17332      8.21450         0.141599      0.001400     -0.018284
O	      8.67247      6.14243      8.20091         0.025012      0.086640     -0.023970
O	      1.99883      6.22968      6.21456        -0.055589      0.047922      0.030114
O	      4.41090      8.34409      6.12907         0.033315     -0.023530      0.084052
O	      4.52301      6.15310      8.23130        -0.156899     -0.434791     -0.002839
O	      6.49788      8.13743      8.16572        -0.007115      0.002004      0.017092
O	      6.53004      6.09122     10.23221         0.027144      0.159161     -0.028704
O	      8.75647      8.23786     10.34497         0.044546     -0.002981     -0.058386
