# total energy = -217.99273784 eV
 
CRYSTAL
PRIMVEC
0.004884 6.259496 6.144008 
6.228691 -0.016113 6.165336 
4.182479 4.217346 -0.041383 
PRIMCOORD
36 1
Li	      8.34730      8.30671     12.18683         0.052302      0.049998     -0.030992
Li	      6.33892      8.41895     10.17565         0.001914      0.005981      0.015661
Li	      2.08719      4.20384      2.25658         0.062871      0.073502     -0.020311
Li	      2.06554      2.25062      4.09964        -0.045574      0.024556      0.026118
Li	      3.96737      4.22848      4.06591         0.006589      0.047247     -0.018406
Li	      0.14306      4.16736      4.09800         0.004982      0.023963      0.042825
Li	      2.13788      6.09374      4.11853         0.000640     -0.071245     -0.040172
Li	      2.07921      4.19908      5.99798        -0.083162     -0.012455      0.011684
Li	      4.10080      6.27291      6.04068        -0.009863     -0.006385     -0.042425
Ti	      4.09276      2.16197      6.03057         0.081692     -0.077212      0.087531
V	      0.09242      6.15095      6.10493        -0.874425     -0.456015     -0.066890
V	      0.10556      2.14848      2.20606        -0.100204     -0.060283      0.101739
Fe	      6.26097      6.30564      8.24734         0.084860     -0.047326      0.092037
Co	      6.26158     10.44668      8.17825        -0.110454      0.120139     -0.042445
Co	      8.33451     10.43207     10.20271         0.066694     -0.125225      0.313035
Co	      6.26828      4.15286      6.04759         0.156918      0.073065     -0.075568
Cu	      4.08309      2.12115      2.07874        -0.109556      0.071449      0.046474
Cu	      8.31005      8.36444      8.22415         0.008199     -0.117902      0.063316
O	      2.03683      1.92794      2.03917        -0.115724     -0.175349      0.029127
O	      4.32106      4.35480      1.95381         0.197341      0.104170      0.052163
O	      4.14777      1.97771      4.18271        -0.001491     -0.069917     -0.143316
O	      6.40883      4.18981      3.99132         0.066692     -0.050456     -0.027426
O	      6.11946      1.96788      6.27895        -0.040915      0.014422      0.038410
O	      8.41704      4.26583      6.01887        -0.168706      0.233409     -0.277252
O	      2.09523      4.17773      4.10784         0.022151     -0.050687      0.019943
O	      4.14923      6.31533      3.91731         0.041751      0.008296     -0.145778
O	      4.20587      4.06328      6.17206        -0.015409     -0.233564     -0.026577
O	      6.34464      6.26193      6.25047         0.132155     -0.082387      0.010952
O	      6.36815      4.12749      8.10136        -0.135056     -0.005070      0.013810
O	      8.33978      6.31599      8.13120        -0.051421      0.095246     -0.077390
O	      1.95256      6.27995      6.23614         0.654507      0.095773      0.302112
O	      4.11661      8.56316      6.18262         0.030975      0.343298     -0.070056
O	      4.10450      6.15254      8.28471        -0.001338     -0.012547      0.029759
O	      6.06921      8.35996      8.18348         0.278897      0.009291      0.023821
O	      6.15332      6.26498     10.26990        -0.081259      0.032270     -0.057980
O	      8.34103      8.52609     10.18064        -0.007573      0.227950     -0.157532
