# total energy = -217.52329522 eV
 
CRYSTAL
PRIMVEC
0.029454 6.089663 6.583721 
6.303566 0.037986 6.576948 
4.222492 4.073057 0.005193 
PRIMCOORD
36 1
Li	      6.22360      0.11680      6.53881        -0.033271      0.024283     -0.006284
Li	      2.10043      8.03381      6.54049         0.011294      0.006276     -0.016542
Li	      6.35036      4.06898      2.34671         0.015722      0.014445      0.072647
Li	      8.33242      4.08286      4.50255         0.020102      0.024914      0.019673
Li	      6.39993      2.14661      4.52381        -0.010286     -0.046672     -0.023461
Li	      6.25071      2.06260      8.58204         0.078489     -0.014167      0.061815
Li	      8.40546      4.09752      8.59930        -0.016433     -0.024831      0.046993
Li	      4.35903      4.10905      4.33383         0.011859     -0.021546     -0.032725
Li	      8.47342      8.16924      8.96140        -0.046316     -0.008545     -0.017171
Ti	      6.37971      6.08534      8.93936         0.001109     -0.030376      0.209584
V	      4.09610      2.21294      2.27526        -0.109408     -0.031281     -0.237777
V	      4.27027      6.03168      6.61844        -0.173974      0.151002     -0.101082
Fe	     10.44453      8.13172     10.97127         0.074041      0.090148      0.110968
Fe	      2.11106      4.10624      6.58261         0.013168      0.028568      0.046386
Co	      8.49167      6.12713      6.75758         0.132615      0.032918     -0.101913
Cu	      2.11022      2.01291      4.33255        -0.007424      0.131816     -0.118345
Cu	      2.12021      6.06371      4.42853        -0.034014      0.002808     -0.160174
Ni	      6.41956      4.04419      6.42676        -0.139067      0.041847      0.213424
O	      2.35871      2.03968      1.96599        -0.079072     -0.029727     -0.097673
O	      4.24385      3.95519      2.11924         0.015773      0.138535      0.011513
O	      4.11740      2.08510      4.04017         0.126104     -0.010466      0.235916
O	      6.34943      4.15161      4.41298         0.008062     -0.092258     -0.129848
O	      6.14568      2.09483      6.58071        -0.178899     -0.180035     -0.011909
O	      8.41702      4.30978      6.55109         0.063121      0.132966      0.022760
O	      2.00845      4.05544      4.53214         0.081723     -0.160265     -0.164227
O	      4.40548      6.11924      4.61126         0.146996     -0.125695     -0.073110
O	      4.16651      4.01927      6.60685         0.134628     -0.337417      0.025315
O	      6.42287      6.11539      6.82638         0.134468     -0.038827      0.092912
O	      6.31799      4.15322      8.91006        -0.011962      0.099959     -0.094895
O	      8.30621      6.15261      8.84063        -0.054855     -0.011000      0.021581
O	      2.23719      6.02968      6.46692        -0.119774      0.037471      0.157537
O	      4.32156      8.07625      6.58221        -0.011472      0.081103     -0.033209
O	      4.33195      6.20534      8.60853         0.047486     -0.033537      0.013767
O	      6.16060      8.09829      8.66088         0.072375     -0.077777      0.097620
O	      6.18245      6.09868     10.80764        -0.003476      0.010356     -0.060534
O	      8.52307      8.04498     11.01264        -0.159430      0.225007      0.020468
