# total energy = -236.85719790 eV
 
CRYSTAL
PRIMVEC
0.028515 6.302694 6.393424 
6.228068 0.042541 6.379279 
4.167629 4.207743 0.013142 
PRIMCOORD
36 1
Li	      2.10846      2.07880      0.11741         0.043297      0.005039      0.021722
Li	      4.09638      8.35200      8.48947        -0.005787     -0.058269     -0.019652
Li	      8.32334      4.25830      8.48002         0.011599      0.021302     -0.018417
Li	      4.12478      4.26696      4.28405        -0.039335      0.039939     -0.014328
Li	      8.26411      6.39446      6.51701        -0.006407      0.004045      0.032810
Li	      6.19733      4.33934      6.46670        -0.020510      0.068075      0.002917
Li	      2.13576      6.29407      4.22765         0.025203      0.002293     -0.037876
Li	      4.20489      6.23677      6.49353         0.000105     -0.009434      0.020328
Li	      6.27566      6.29782      8.38306         0.005130     -0.004725     -0.030591
Ti	      4.10976      4.18495      0.07787        -0.320845     -0.039998      0.141409
Ti	      6.15272      2.19144      4.27295        -0.148472      0.070318     -0.055160
Mn	      4.12452      0.04474      4.22806         0.017528     -0.012264      0.073626
Mn	      2.15786      4.19300      6.40590         0.034131     -0.090978     -0.023095
V	      6.24618      4.26426     10.59442         0.011978     -0.051393     -0.062467
Cr	      2.08729      2.13336      4.24161         0.021067      0.001826      0.060770
Fe	     10.35645      6.37718      8.52029         0.077124      0.033012     -0.054951
Co	      8.34146      8.42562      8.53313         0.030973     -0.028730     -0.039128
Ni	      2.13397      6.32107      8.48504        -0.002707     -0.025723      0.038946
O	      2.01945      2.05990      2.21079         0.034650      0.104507     -0.015200
O	      4.18826      4.29717      1.99842        -0.113825     -0.072688     -0.211136
O	      4.24118      2.17964      4.19996         0.163410      0.025447      0.021484
O	      6.17178      4.17633      4.30699        -0.036503     -0.073201      0.023476
O	      6.31078      2.03922      6.26813        -0.040361     -0.074142     -0.038618
O	      8.46626      4.20325      6.40320         0.344387      0.018237      0.020657
O	      2.00852      4.12219      4.19064         0.048466      0.020896      0.029789
O	      4.26299      6.36982      4.18260        -0.004973      0.010806     -0.008270
O	      4.07522      4.22254      6.58335        -0.008874      0.006159      0.027113
O	      6.28156      6.44747      6.25726        -0.043946      0.022235      0.001071
O	      6.13923      4.20604      8.54323        -0.029394      0.032893      0.019219
O	      8.42559      6.46138      8.51925        -0.110829      0.052647      0.001960
O	      2.03263      6.16225      6.42458        -0.038219      0.028114     -0.100114
O	      4.27648      8.50120      6.30937        -0.001553      0.078988      0.039133
O	      4.15644      6.18633      8.51586         0.108318     -0.050925      0.005306
O	      6.37574      8.42412      8.70719         0.007923     -0.080042      0.123184
O	      6.31126      6.42286     10.75244         0.040048      0.036310      0.068300
O	      8.33919      8.41121     10.55377        -0.052798     -0.010577     -0.044216
