# total energy = -240.88599133 eV
 
CRYSTAL
PRIMVEC
0.027610 6.336607 6.401589 
6.285034 0.040087 6.388876 
4.185813 4.211827 0.031142 
PRIMCOORD
36 1
Li	      4.18246      4.21430      0.21424        -0.010905      0.023192      0.146820
Li	      6.16950      4.33187      2.18688        -0.035716      0.033239      0.066442
Li	      4.09622      2.22452      2.11402         0.004680     -0.005786      0.024287
Li	      4.26555      6.26361      2.19788        -0.006682      0.035925      0.024117
Li	      2.17015      4.13611      2.13923        -0.058631     -0.011447     -0.022706
Li	      6.28669      4.24370      6.43832         0.001214      0.002333     -0.034973
Li	      8.42221      6.38511     10.62146         0.013582      0.037537     -0.041351
Li	      4.21855      6.35522      6.39977         0.042751      0.022921     -0.058016
Li	      4.26330      4.24397      8.44311        -0.002448     -0.043857     -0.066891
Ti	      8.48288      6.25796      6.49260         0.024905     -0.141109      0.133640
Ti	      2.06098      4.42670      6.45302         0.017065      0.106077      0.164203
Mn	      6.35184      8.47195     10.58544         0.027200     -0.126308     -0.139697
Mn	      4.18494      4.28875      4.21358         0.005439      0.010019      0.066195
V	      6.22602      6.27825      8.49278         0.079677     -0.015312      0.040899
Cr	      2.10631      2.08404      0.12073        -0.008952      0.047503      0.011932
Fe	      8.37941     10.55213     10.65743        -0.072161      0.025070     -0.037727
Fe	     10.47067      8.41051     10.62759         0.153317      0.040904     -0.055352
Co	      2.06978      2.10238      4.12201        -0.033614      0.032340     -0.014652
O	      2.12478      2.11822      2.05420        -0.044193      0.002099      0.045052
O	      4.15856      4.22792      2.36572        -0.034318     -0.000428     -0.050067
O	      4.14550      2.12256      4.44198         0.047172      0.031970      0.045142
O	      6.23515      4.25404      4.27055        -0.080804      0.015079      0.017042
O	      6.24160      2.12574      6.44191        -0.037271     -0.022765      0.039305
O	      8.40364      4.27528      6.39080         0.019798      0.036500      0.092560
O	      2.06391      4.22012      4.44924        -0.013968      0.039242      0.001419
O	      4.21154      6.41517      4.28452        -0.049923     -0.056661      0.029820
O	      4.07760      4.15315      6.26921        -0.010118      0.005157     -0.010817
O	      6.39421      6.40985      6.48303        -0.032167     -0.011942      0.055844
O	      6.28793      4.34912      8.59959         0.006785      0.038482     -0.103706
O	      8.24705      6.38123      8.37246         0.044406     -0.023186     -0.201780
O	      2.11235      6.30492      6.47830        -0.009274     -0.143828      0.016474
O	      4.23841      8.48358      6.37335         0.080537      0.016253      0.085164
O	      4.41328      6.34009      8.53143        -0.070265     -0.002865     -0.117561
O	      6.33031      8.36034      8.38893        -0.024041      0.049938     -0.222770
O	      6.36877      6.28490     10.46391         0.074706      0.001187      0.077834
O	      8.47622      8.43713     10.86595        -0.007781     -0.047471     -0.006123
