# total energy = -238.01167575 eV
 
CRYSTAL
PRIMVEC
-0.010631 6.373065 6.239317 
6.301497 -0.015370 6.244557 
4.188815 4.239983 0.001586 
PRIMCOORD
36 1
Li	      6.29932      0.04776      6.20356        -0.053420      0.085292     -0.039681
Li	      6.28767      8.44997     10.41338         0.016721      0.000249     -0.024114
Li	      8.30213      4.35884      8.39088         0.018725     -0.051790      0.012569
Li	      2.10141      2.15436      4.17125         0.044925     -0.017558      0.024333
Li	      4.14601      4.24809      4.19299        -0.034584     -0.012814     -0.013240
Li	      8.41661      6.31711      6.33768         0.061943     -0.084165     -0.004364
Li	      6.34753      4.23767     10.23681        -0.041416     -0.005655     -0.015953
Li	      8.48475      8.34774      8.32454        -0.000366      0.009162      0.030344
Li	      6.43855      6.22838      8.32686         0.004940     -0.031690     -0.008339
Ti	      8.36333      2.23506      6.15422        -0.343596      0.219162     -0.396351
Ti	      4.19100      2.23287      2.20970         0.134197      0.133871      0.637450
Mn	      8.28623      6.30417     10.34271        -0.156730      0.046001     -0.055420
Mn	      4.15192      6.36728      6.19484         0.143354     -0.086510     -0.007591
V	      6.28873      4.27114      6.25110         0.022300     -0.044022     -0.078007
Cr	      6.26227      4.24366      2.12909        -0.016848     -0.030138      0.133578
Fe	      4.34248      6.33897     10.35207        -0.020839      0.011801     -0.004640
Fe	      6.36463      8.33066      6.17639        -0.039935     -0.001208      0.178702
Ni	     10.43147      6.38961      8.37852         0.119204     -0.060381     -0.007129
O	      2.14007      2.03286      2.03796         0.154938      0.050895     -0.062827
O	      4.24358      4.16227      2.13346        -0.005184     -0.250196     -0.044944
O	      4.23825      2.09830      4.04042        -0.041987      0.170235     -0.517482
O	      6.43487      4.22583      4.15769        -0.202178      0.027350     -0.095341
O	      6.41378      2.19619      6.28412         0.238177     -0.090421     -0.058470
O	      8.40958      4.12707      6.27210        -0.051139     -0.258780      0.092258
O	      2.02633      4.22096      4.31213         0.018548     -0.026847     -0.210642
O	      3.97672      6.34778      4.23633         0.007413     -0.000173      0.125756
O	      4.17571      4.34924      6.24409         0.071435      0.057702      0.019132
O	      6.30603      6.33867      6.23364         0.024806      0.128936      0.037830
O	      6.29467      4.18864      8.19859        -0.030278      0.074192      0.056123
O	      8.43314      6.33938      8.38049        -0.120863      0.012031     -0.020774
O	      1.99622      6.42178      6.30914         0.020039      0.030583      0.025432
O	      4.08597      8.41734      6.33285        -0.024742     -0.039859      0.023317
O	      4.08466      6.49000      8.19949        -0.059083      0.046408     -0.128717
O	      6.14082      8.59391      8.19488        -0.172269      0.040467      0.015973
O	      6.34793      6.36124     10.35137         0.308671     -0.023287      0.030280
O	      8.38938      8.44420     10.52807         0.005119     -0.028844      0.350950
