# total energy = -242.05069964 eV
 
CRYSTAL
PRIMVEC
-0.001646 6.160177 6.399671 
6.266691 0.009081 6.388836 
4.209730 4.132274 -0.026187 
PRIMCOORD
36 1
Li	      8.35529      8.23126     12.72764        -0.029279     -0.005068     -0.011988
Li	      4.17354      2.09172      2.10805        -0.007411     -0.013409      0.015964
Li	      6.36630      8.21389     10.65622         0.005666      0.028900     -0.015555
Li	      6.29762      6.18694      4.25336         0.000338     -0.019670     -0.003710
Li	      8.38597      6.15500      6.34347         0.011139     -0.000913     -0.015407
Li	      6.26244      4.15473      6.35572        -0.008579     -0.010239     -0.013039
Li	      8.36672      6.24718     10.68819         0.011800      0.047842      0.011878
Li	      2.10387      4.12209      6.38958         0.028401     -0.005272      0.034606
Li	      8.38538      8.26552      8.56456        -0.018097      0.010385      0.021454
Ti	      4.16025      3.98977      4.37817        -0.051661     -0.272421      0.326312
Ti	      6.29524      6.30695      8.41751         0.061416      0.480894     -0.260525
Mn	     10.40271      6.25017      8.52780        -0.002662      0.012271     -0.076204
Mn	      2.08301      4.04623      2.07426         0.040862     -0.135007     -0.021522
V	      6.31883      6.16785     12.70746        -0.012662      0.142552      0.046642
Cr	      4.14676      6.22157      6.37299         0.012531     -0.043210      0.073693
Fe	      2.12465      6.16416      8.54448        -0.070027     -0.069067     -0.073634
Fe	      8.27543      4.10946      4.28075         0.030294      0.164416     -0.052749
Fe	      4.21391      8.23975      4.26391         0.111936     -0.089418     -0.018620
O	      2.07800      2.11558      2.11576        -0.025086      0.210433      0.015893
O	      4.17609      4.08218      2.08207        -0.291962     -0.076981      0.004071
O	      4.16902      2.10663      4.29627        -0.015891      0.266920      0.001275
O	      6.24599      4.12289      4.24865        -0.102023      0.000300      0.073163
O	      6.28344      1.82149      6.41863        -0.035889     -0.127978     -0.032108
O	      8.49875      4.11582      6.27938         0.025648      0.021265     -0.043794
O	      2.22298      4.09884      4.20545         0.092531      0.004745      0.151237
O	      4.19600      6.09245      4.35493         0.014459     -0.130569      0.041585
O	      4.19330      4.17826      6.25430         0.009585      0.028688     -0.281498
O	      6.15971      6.21216      6.52556         0.042551     -0.002258      0.333068
O	      6.31442      4.21219      8.48783         0.139865      0.103418     -0.037825
O	      8.24516      6.04349      8.47847        -0.081259      0.023433     -0.010876
O	      2.09453      6.15720      6.40681         0.013059      0.019080     -0.095242
O	      4.24324      8.30813      6.38288        -0.042075      0.023545      0.055359
O	      4.27483      6.21600      8.49795         0.210352     -0.047111     -0.052310
O	      6.36573      8.17188      8.52330        -0.057284     -0.486975     -0.043445
O	      6.20992      6.22748     10.66829         0.055840      0.052939     -0.044270
O	      8.43655      8.34836     10.59034        -0.066427     -0.106458     -0.001878
