# total energy = -46.32916053 eV
 
CRYSTAL
PRIMVEC
-0.000625 2.023540 2.025769 
2.010596 2.064024 -4.092654 
-4.046916 2.060285 -2.061301 
PRIMCOORD
8 1
Li	     -1.95503      3.94557     -1.96091         0.079760      0.316114     -0.210977
Li	     -0.04188      2.08356     -2.08339         0.145829     -0.057076     -0.037847
Mn	      0.00008      0.00148      0.00058         0.325418     -1.759740      1.324497
Ni	     -1.98318      2.00279     -0.01696        -0.681152     -0.149282      0.458865
O	     -2.00088      4.14641     -4.15060        -0.446088      0.700117     -0.829940
O	     -2.10560      2.00372     -2.00098        -0.198946      0.293987     -0.653392
O	      0.10973      4.02468     -2.04372         0.173514      0.136224      0.042533
O	      0.00490      1.88163      0.10574         0.601666      0.519656     -0.093738
