# total energy = -242.22663813 eV
 
CRYSTAL
PRIMVEC
0.011319 6.310777 6.271623 
6.383297 0.026448 6.255865 
4.282566 4.224391 -0.009714 
PRIMCOORD
36 1
Li	      8.53041      8.47731     12.36876        -0.014740     -0.008935     -0.021525
Li	      4.42361      6.21359     10.46096        -0.031213      0.033686      0.000206
Li	      6.52105      8.30472     10.45769        -0.022877      0.059998      0.020988
Li	      6.37883      6.36562      4.18434         0.011009      0.061379      0.016639
Li	      4.24929      4.27178      4.17771        -0.029296     -0.022391     -0.017247
Li	      6.42759      4.18751      6.19193        -0.024261     -0.045224     -0.061109
Li	     10.56861      8.57058     10.45884         0.016726     -0.050292      0.006052
Li	      8.41686      6.42074     10.44574         0.016319     -0.075847      0.013350
Li	      6.40889      6.35219      8.53649        -0.007624      0.023803      0.027862
Ti	      8.37050      4.24732      8.45057        -0.120823     -0.036549      0.675077
Ti	      4.19260      2.11628      6.12006        -0.248433      0.138498     -0.561793
Mn	      4.28877      6.29997      2.16389         0.013161     -0.012063      0.037231
Mn	      4.32970      8.39263      8.43031         0.044885      0.010360      0.025387
Mn	      4.29518      6.34891      6.09501         0.018379     -0.001547     -0.002532
Mn	      8.52829      8.42692      8.44932        -0.013738      0.044643      0.019026
V	      6.43796      4.22180      2.23086        -0.017014      0.052394      0.055683
Cr	      6.39560      6.32302     12.43471         0.103644     -0.003766     -0.034618
Cu	      2.11064      4.21928      6.18614         0.036980     -0.067625     -0.223055
O	      2.16526      2.14964      2.02553        -0.027489      0.073534     -0.013106
O	      4.32907      4.22834      2.02129        -0.071835      0.012335     -0.066776
O	      4.27435      2.15997      4.30292         0.014207     -0.011809      0.420600
O	      6.38244      4.29950      3.96989         0.026868      0.057126      0.010259
O	      6.26563      2.06315      6.37654        -0.063780     -0.026207      0.003255
O	      8.58774      4.35088      6.32457         0.062814      0.027529      0.029943
O	      2.21981      4.21270      3.98253        -0.079153     -0.007454     -0.810842
O	      4.31231      6.28634      4.08851        -0.012929      0.055679     -0.102992
O	      4.27512      4.12970      6.42218         0.100865     -0.084023      0.122875
O	      6.52667      6.44099      6.24614         0.141458     -0.334667      0.003080
O	      6.48161      4.19523      8.32346         0.147074     -0.045206      0.016762
O	      8.51662      6.23134      8.28695        -0.009530     -0.051457     -0.055807
O	      2.05734      6.23140      6.37832        -0.032234      0.277731      0.113002
O	      4.33583      8.48048      6.24022        -0.131863      0.103839      0.116296
O	      4.13300      6.30082      8.28554         0.138594     -0.002454      0.040381
O	      6.44811      8.56951      8.43584         0.009162     -0.060411      0.155324
O	      6.39128      6.35019     10.51492         0.026359     -0.037086      0.071877
O	      8.54322      8.45538     10.30137         0.030329     -0.047523     -0.029756
