# total energy = -224.82066802 eV
 
CRYSTAL
PRIMVEC
0.047024 6.295048 6.122995 
6.359213 0.045206 6.124287 
4.259984 4.217599 0.010262 
PRIMCOORD
36 1
Li	      8.41375      8.37891     12.14938        -0.028525     -0.006016      0.040897
Li	      2.09867      0.04488      2.04077        -0.021809      0.048813     -0.042921
Li	      8.46090      4.20472      4.16512        -0.001581      0.026135      0.070357
Li	      6.38832      2.13408      8.06937         0.065548     -0.021284      0.035290
Li	      4.32976      4.24871      4.17219         0.045256      0.037111     -0.021367
Li	      4.38383      2.25327      6.05752        -0.032473     -0.029552     -0.034121
Li	      6.26311      4.06685      6.09918        -0.033982      0.010358      0.040020
Li	      4.19366      8.36313      4.18500        -0.027306     -0.016325      0.018205
Li	      4.23517      6.26797      6.07920         0.039992     -0.009372     -0.050642
Ti	      4.19640      2.13516      2.03615        -0.170640      0.069483      0.040852
Ti	      6.34373      6.26046      8.23109        -0.075529     -0.246154      0.116186
V	      8.51309      4.27124      8.10531         0.010920     -0.035752      0.074264
Cr	      6.35009      6.19836      4.15553        -0.038594     -0.178265      0.038769
Cr	      2.20062      4.24375      6.07506        -0.027908     -0.009404     -0.020990
Cu	      2.28112      6.35884      4.12735         0.092482     -0.070638      0.008195
Ni	      6.44340      6.40849     12.20285        -0.089030     -0.014512     -0.028246
Ni	      6.41956      2.21585      4.15545        -0.197963      0.124779     -0.053049
Ni	      4.29099      4.23603      8.14706         0.056270      0.046487     -0.015359
O	      2.23827      2.15412      2.11239         0.149961     -0.008798     -0.026841
O	      4.16937      4.10917      2.06451        -0.012565     -0.067719      0.060447
O	      4.15092      2.12910      3.99670        -0.007977      0.041064     -0.144863
O	      6.41126      4.35338      4.11626         0.133656     -0.006943     -0.030629
O	      6.36395      2.10040      6.10489        -0.035314      0.133255      0.221211
O	      8.53947      4.22243      6.35216        -0.066231      0.016958     -0.110327
O	      2.17382      4.12747      4.02353         0.025214     -0.046669      0.010774
O	      4.55483      6.36687      4.04255        -0.019149      0.062368      0.065025
O	      4.15793      4.23651      6.18146        -0.005211      0.022116     -0.066757
O	      6.41623      6.42448      6.15528         0.045642      0.028329      0.088336
O	      6.45298      4.36508      8.15383         0.059460      0.143294      0.041379
O	      8.42747      6.26803      8.26796        -0.103453      0.038434     -0.075229
O	      2.14962      6.23153      6.04417         0.099230      0.019060      0.121465
O	      4.37068      8.49084      6.22646         0.121574     -0.109516      0.045743
O	      4.39609      6.42295      8.14351         0.076034      0.033317     -0.040726
O	      6.33839      8.37683      8.14466        -0.029287      0.066042     -0.123015
O	      6.29872      6.40081     10.10287        -0.107992     -0.138363     -0.330812
O	      8.49804      8.39443     10.13494         0.111280      0.047877      0.078480
