# total energy = -225.07576888 eV
 
CRYSTAL
PRIMVEC
-0.001144 6.186411 6.321465 
6.244316 0.024879 6.295409 
4.187821 4.131630 -0.008483 
PRIMCOORD
36 1
Li	      4.17778      4.15352      0.02698         0.008974     -0.016904      0.036326
Li	      2.11112      6.18710      8.34850         0.016014      0.034985      0.000710
Li	      8.34808      4.16680      8.38187         0.000156     -0.024408      0.019534
Li	      6.18076      6.24847      4.30018        -0.014693      0.000210      0.053374
Li	      4.10864      4.21073      4.36183         0.003523      0.002960     -0.026485
Li	      4.14375      2.19831      6.32315        -0.008814      0.051375     -0.005122
Li	      6.10850      4.13178      6.28385        -0.097372      0.023646     -0.016457
Li	      4.19508      6.04944      6.27891         0.015567      0.024870     -0.027214
Li	      4.18822      4.15639      8.19437         0.049602     -0.003699     -0.021586
Ti	      4.10818      2.18516      2.10249        -0.262808      0.365837      0.047539
Ti	      6.32908      6.13151      8.25931         0.155673     -0.216947     -0.583518
V	      6.23519      2.17263      4.22096        -0.115185      0.203815     -0.061268
Cr	      2.07747      2.05512      0.00509         0.004601     -0.061096      0.320786
Cr	      4.21586      8.23549      4.22597         0.110879     -0.103035      0.023891
Ni	      4.17509      0.03030      4.21802        -0.103836      0.041064      0.011520
Ni	     10.38571      6.17502      8.38703         0.060193     -0.057937     -0.033246
Ni	      2.14881      6.14042      4.21342         0.044238     -0.027280     -0.015761
Ni	      2.20678      4.18669      6.29244        -0.133004     -0.014546      0.053090
O	      4.14978      4.13867      6.29585         0.175487      0.022949      0.020651
O	      2.16560      2.04268      2.01722         0.227261     -0.001355     -0.154387
O	      4.18126      4.04764      2.08462         0.015758     -0.418539     -0.013472
O	      4.27291      2.06690      4.09400        -0.040588      0.075663     -0.100221
O	      6.31418      3.94474      4.17332        -0.053652     -0.094234     -0.008196
O	      6.35431      2.04809      6.22270         0.163398     -0.032221     -0.078184
O	      8.33232      3.93891      6.23974         0.035714     -0.135857      0.075527
O	      1.96891      4.13450      4.29246        -0.060476     -0.087734     -0.097811
O	      4.17863      6.27942      4.10108         0.066017      0.063781      0.152887
O	      6.28147      6.20721      6.42374         0.015057     -0.069291      0.510800
O	      6.23206      4.20592      8.52495        -0.005720      0.273736     -0.014217
O	      8.26116      6.20166      8.43308        -0.255245      0.018845     -0.102249
O	      2.09261      6.30714      6.28887        -0.000211      0.198105      0.102554
O	      4.10517      8.24818      6.34398        -0.107847      0.024321     -0.012145
O	      4.31223      6.32283      8.48247         0.059345      0.030913     -0.110373
O	      6.18738      8.21584      8.49376        -0.006067     -0.055831     -0.005076
O	      6.26399      6.28532     10.46104         0.015621     -0.057519     -0.028537
O	      8.32387      8.25853     10.61969         0.022439      0.021360      0.086336
