# total energy = -238.06576955 eV
 
CRYSTAL
PRIMVEC
-0.029864 6.253831 6.251352 
6.387771 -0.011960 6.233289 
4.258633 4.157499 -0.008211 
PRIMCOORD
36 1
Li	      4.21846     10.26121      6.28409        -0.030462      0.028994      0.043167
Li	      6.45912     10.23539      8.26088         0.019087      0.011387      0.001420
Li	      4.34480      8.26224      8.19918        -0.016743     -0.015716      0.076203
Li	      4.26208      6.16350     10.30356         0.005257     -0.000038      0.001343
Li	      6.41878      8.30944     10.23352         0.019219      0.030764      0.075937
Li	      6.45237      2.13747      8.30623        -0.035016      0.066685     -0.040233
Li	     10.54977      8.36066     10.46338        -0.072813     -0.007834     -0.024079
Li	      6.20301      8.36946      6.41008        -0.068050      0.016853     -0.062058
Li	      8.35868      8.44557      8.34298         0.013591     -0.050930     -0.027007
Ti	      4.32127      4.15928      4.04477         0.232990      0.001259     -0.376113
Ti	      4.39673      2.11410      6.26844         0.387914      0.054571      0.060674
Ti	      8.36331      6.36238     10.52558        -0.229619      0.262762      0.153942
Cr	      8.49396      4.14184      8.29747        -0.075793      0.041314     -0.121540
Cr	      2.09307      2.11415      4.15816         0.082134     -0.129438      0.071167
Cr	      6.32574      6.30975      8.29096         0.213236     -0.132591     -0.058700
Co	      6.38352      4.12789      6.27063         0.087172      0.269627     -0.077347
Cu	      4.18575      6.31521      6.35101         0.011074     -0.122153     -0.042939
Ni	      2.16039      2.07646      0.04471        -0.192870      0.103405      0.055741
O	      2.06219      2.18414      2.16922         0.018363     -0.007672      0.054825
O	      4.16287      4.15893      2.19937        -0.028140      0.013084      0.408104
O	      4.13961      2.16695      4.27213        -0.008584      0.092815      0.054245
O	      6.25484      4.25458      4.14242        -0.180917     -0.049253      0.214547
O	      6.28555      2.07600      6.23706        -0.184806      0.365137      0.007110
O	      8.54397      4.22246      6.27165         0.101833      0.142909      0.022915
O	      2.22826      4.18005      4.09792         0.022238      0.046190      0.021764
O	      4.25286      6.13267      4.25045        -0.002027     -0.024654     -0.054515
O	      4.25267      4.05800      6.16263        -0.079536     -0.106604     -0.052521
O	      6.56729      6.21365      6.20052         0.094247     -0.488874      0.062147
O	      6.51113      4.24189      8.29059         0.000472     -0.074726     -0.301855
O	      8.47469      6.19753      8.28054        -0.022627      0.029941     -0.036866
O	      1.96861      6.24714      6.12841        -0.140543     -0.123594     -0.180945
O	      4.12771      8.25566      6.23552         0.129633      0.019919     -0.013691
O	      4.36018      6.22645      8.27526        -0.209590     -0.027940      0.154860
O	      6.36730      8.25398      8.31758        -0.023985      0.061892     -0.042214
O	      6.50787      6.22632     10.29632         0.168182     -0.011721      0.036521
O	      8.49663      8.20070     10.42437        -0.004520     -0.285766     -0.064009
