# total energy = -46.59921713 eV
 
CRYSTAL
PRIMVEC
-0.000641 2.075160 2.077446 
2.061887 2.116677 -4.197058 
-4.150154 2.112843 -2.113885 
PRIMCOORD
8 1
Li	     -2.05605      4.14944     -2.06223        -0.029290     -0.060585      0.055980
Li	     -0.04405      2.19122     -2.19104        -0.022715      0.001040     -0.000089
Mn	      0.00008      0.00156      0.00061        -0.070120      0.414168     -0.346928
Ni	     -2.08565      2.10627     -0.01783         0.144922      0.033731     -0.085224
O	     -2.10426      4.36066     -4.36507        -0.023880     -0.134434      0.170336
O	     -2.21440      2.10726     -2.10438        -0.033220      0.028141      0.020727
O	      0.11540      4.23264     -2.14932         0.026554     -0.135412      0.110038
O	      0.00515      1.97885      0.11121         0.007749     -0.146649      0.075160
