# total energy = -240.09634690 eV
 
CRYSTAL
PRIMVEC
0.002232 6.355521 6.279313 
6.357712 0.001700 6.279822 
4.241379 4.240259 -0.001709 
PRIMCOORD
36 1
Li	      2.03037      2.11299      0.10285        -0.020247      0.009506     -0.004405
Li	      2.01177      0.15431      2.10016         0.006492      0.038966      0.024518
Li	      0.13949      2.03720      2.07433         0.034781      0.004786      0.069800
Li	      2.05562      2.10785      4.06969        -0.222796     -0.006847      0.028167
Li	      4.27094      4.29172      4.11040         0.019719      0.240964      0.020756
Li	      4.33749      2.13945      6.25654         0.045433     -0.022238     -0.004304
Li	      6.34611      4.11694      6.27882        -0.041138     -0.028600      0.027552
Li	      4.24125      8.41606      4.20535        -0.040212     -0.217862     -0.016419
Li	      2.18954      6.35636      4.18666         0.239179      0.023452     -0.031487
Ti	      8.37073      4.23104      4.34289        -0.248161     -0.076575      0.329535
Ti	      2.15318      4.28382      6.08759         0.136771     -0.009485     -0.807861
Ti	      6.46205      6.26087      8.35242         0.194221     -0.375243     -0.002101
Mn	      4.29610      4.19889      8.35598         0.071141     -0.047442     -0.003926
Cr	      4.19560      2.13246      2.09575        -0.143134     -0.005835      0.016509
Cr	      6.34660      2.14016      4.22997         0.049957      0.037267      0.078214
Co	      6.37692      0.09531      6.34185        -0.009146      0.014541     -0.039618
Co	      4.20476      6.37284      6.08679         0.023324     -0.161398      1.451289
Ni	      2.14824      4.17906      2.13843        -0.037360      0.048250      0.015984
O	      2.21125      2.15418      2.09571         0.072592     -0.114903     -0.098328
O	      4.19264      4.14717      2.11092         0.195039     -0.065601     -0.202607
O	      4.31053      1.99039      4.12275         0.037807     -0.059018      0.016172
O	      6.48298      4.17601      4.19757         0.294421     -0.079541      0.019381
O	      6.34226      2.11648      6.18943         0.042640     -0.149641      0.031714
O	      8.51264      4.26647      6.19346         0.015992     -0.017031     -0.335372
O	      2.08995      4.22512      4.26588         0.040428      0.065794      0.712222
O	      4.24244      6.38721      4.30638        -0.075663     -0.021686     -0.258924
O	      4.09693      4.29399      6.26303        -0.069895      0.521803     -0.211650
O	      6.29027      6.48967      6.41176        -0.336483      0.072584     -0.158559
O	      6.39979      4.36645      8.37872        -0.035737      0.355453     -0.070944
O	      8.34606      6.31822      8.40193        -0.351778      0.057881     -0.097708
O	      2.14014      6.21018      6.30014         0.328082      0.012271     -0.163539
O	      4.37000      8.45241      6.35244        -0.050001     -0.367853     -0.180188
O	      4.33818      6.41649      8.37712         0.011379      0.114446     -0.161723
O	      6.29837      8.37304      8.41264        -0.071770     -0.001726     -0.050866
O	      6.25608      6.44757     10.37590        -0.010784      0.004668      0.018839
O	      8.40099      8.62565     10.46812        -0.095091      0.205894      0.039876
