# total energy = -258.25346423 eV
 
CRYSTAL
PRIMVEC
0.007313 6.340412 6.351378 
6.322358 0.033860 6.324802 
4.248197 4.242946 -0.011004 
PRIMCOORD
36 1
Li	      4.25774      4.24638      0.02989         0.022934     -0.027052      0.021198
Li	      6.35023      4.24790      2.12020         0.004723      0.010819      0.028752
Li	      4.20111      0.06605      4.16382        -0.000166      0.027829     -0.026306
Li	      4.25643      6.32085      2.09274         0.016971     -0.021862     -0.005083
Li	      2.15435      2.09427      4.22927         0.052455     -0.027838      0.003476
Li	      8.43110      6.41067      6.32665        -0.036221     -0.002655      0.009501
Li	      6.39703      8.44200      6.37940         0.013883     -0.039145      0.016543
Li	      4.17542      4.26211      8.41352        -0.047976     -0.001647     -0.000629
Li	      6.33201      6.40775      8.40264         0.014582      0.014234     -0.019619
Ti	      8.42206      2.15409      6.33142         0.031911      0.098154      0.035995
Ti	      6.39230      8.41313     10.53190        -0.002075     -0.128584     -0.050314
Ti	      6.31222      4.30636      6.41629         0.058165      0.071466      0.300000
Ti	      8.38875      6.40733     10.45164        -0.005695     -0.037468     -0.471079
Mn	      8.48432      4.30158      8.39866        -0.041259      0.067773      0.001034
V	      4.27881      8.44647      8.46350        -0.006883      0.023634     -0.027396
V	      6.32434      4.29306     10.51630         0.019910     -0.002584     -0.036677
V	      4.25517      6.35072      6.39567         0.000183      0.074264      0.012864
Cr	      4.25539      4.22388      4.22699        -0.129244      0.024215     -0.024198
O	      2.19176      2.08915      2.00179        -0.007157     -0.028945     -0.065140
O	      4.26644      4.14460      2.21115         0.097385      0.068752      0.012516
O	      4.30536      2.20722      4.19685        -0.027769     -0.025969      0.045989
O	      6.26550      4.15323      4.33552         0.030480      0.001245      0.025069
O	      6.37145      2.21644      6.27804         0.032647      0.032721     -0.001554
O	      8.33163      4.15902      6.24244        -0.107675     -0.091852     -0.013506
O	      2.17868      4.31916      4.28449         0.092014      0.016907      0.043317
O	      4.17767      6.30389      4.31669         0.031555     -0.087614     -0.037139
O	      4.30689      4.27250      6.27437         0.019101     -0.066246     -0.003648
O	      6.29748      6.23879      6.32023        -0.043194     -0.156421     -0.016241
O	      6.31858      4.24781      8.34399        -0.037887      0.001802     -0.270047
O	      8.46442      6.42568      8.57290        -0.030751      0.001212      0.350229
O	      2.18118      6.47234      6.23615        -0.001997      0.039455     -0.001424
O	      4.19438      8.44337      6.33940         0.000840      0.038749      0.052274
O	      4.22008      6.44837      8.35861         0.000506     -0.025326      0.006432
O	      6.29849      8.48421      8.56047         0.027095     -0.001917      0.101702
O	      6.35241      6.41538     10.60835         0.063706      0.172616     -0.005927
O	      8.44964      8.48913     10.56916        -0.105095     -0.012721      0.009036
