# total energy = -243.96865388 eV
 
CRYSTAL
PRIMVEC
0.043452 6.340228 6.321288 
6.221631 0.047652 6.316580 
4.167849 4.243564 0.011788 
PRIMCOORD
36 1
Li	      2.08897      2.12221      0.06865         0.009062     -0.039638      0.034155
Li	      2.19641      6.38611      8.43665         0.070842      0.004875      0.021526
Li	      4.13176      0.07800      4.17706        -0.024091      0.029935     -0.047509
Li	      4.18047      6.33320      2.15043         0.048019     -0.046832      0.080520
Li	      4.17029      4.22348      4.24757         0.046045     -0.005364      0.061137
Li	      4.15700      2.13312      6.26511        -0.004931     -0.005464     -0.085761
Li	      2.15637      6.32789      4.19045         0.036872      0.014118      0.030117
Li	      4.08624      6.29990      6.36220        -0.075389     -0.087794     -0.032929
Li	      4.15731      4.29401      8.42156        -0.058263      0.085563      0.001756
Ti	      0.17601      6.40982      6.28003         0.690117      0.089216     -0.150927
Ti	      2.12456      4.23560      2.12047         0.162196     -0.169561      0.064790
Ti	      6.13787      4.17982      6.22810        -0.477709     -0.012476     -0.500188
Ti	      4.04676      8.36830      4.28444        -0.398670     -0.430046      0.189414
Ti	      6.21894      6.51022      8.31607        -0.300580      0.296005     -0.193395
Co	      6.22385      2.16026      4.22730         0.079973      0.046042     -0.062226
Co	      2.15825      2.14063      4.20979        -0.105208     -0.088870      0.022056
Co	      2.17906      4.20671      6.30781         0.041448     -0.028623      0.026528
Ni	      4.14610      2.12122      2.14562        -0.013984      0.056970     -0.136381
O	      2.10072      2.25334      2.13529        -0.109490      0.244463      0.001344
O	      4.08644      4.25143      1.96550        -0.166757      0.129060     -0.037884
O	      4.18978      2.15929      4.16655         0.509092     -0.059949      0.162884
O	      6.26957      4.25154      4.35722        -0.029606      0.205840      0.237642
O	      6.24028      2.13590      6.33399        -0.060956     -0.018544     -0.129565
O	      8.28190      4.26864      6.45922        -0.016842     -0.014871      0.133111
O	      2.03801      4.26660      4.09599        -0.039689     -0.056098     -0.143880
O	      4.22446      6.50851      4.25206        -0.047683      0.451750     -0.010852
O	      4.30206      4.21646      6.34278         0.450264     -0.062988      0.015273
O	      6.26834      6.20499      6.38915        -0.004095     -0.062151      0.259190
O	      6.28873      4.32758      8.45337         0.046370      0.046373      0.011315
O	      8.18724      6.25645      8.44733        -0.033301     -0.132504     -0.013830
O	      2.00720      6.38733      6.34944        -0.555677      0.013974     -0.026803
O	      4.16903      8.61770      6.23488        -0.058060      0.067411     -0.150563
O	      4.31865      6.40986      8.40721         0.326448     -0.091137     -0.019039
O	      6.28172      8.42567      8.46438         0.073339     -0.157712      0.331341
O	      6.25193      6.31299     10.58884        -0.043767     -0.194483      0.006874
O	      8.42254      8.48914     10.51084         0.034663     -0.016491      0.050757
