# total energy = -239.84789763 eV
 
CRYSTAL
PRIMVEC
-0.000228 6.357278 6.362311 
6.207963 0.009765 6.351983 
4.139596 4.232324 0.005682 
PRIMCOORD
36 1
Li	     10.27476      4.26021      6.32862        -0.031251      0.003295     -0.001356
Li	      8.31039      8.47911     12.55694         0.034023     -0.030592      0.024437
Li	      2.11440      6.40062      8.45952         0.031546      0.045645     -0.055852
Li	      8.34604     10.41204     10.57833         0.012357      0.010324     -0.001439
Li	      8.29518      4.27578      8.38887         0.004188     -0.006944     -0.028978
Li	      8.31985      6.32033      6.41411        -0.008069      0.005846      0.039262
Li	     10.12740      8.49086     10.67151         0.039820      0.071095      0.042498
Li	      8.26545      6.57313     10.58096        -0.054887     -0.002421     -0.022633
Li	      8.28710      8.49694      8.67845        -0.019602      0.014782     -0.020538
Ti	      6.38507      4.15169      6.38528         0.366417     -0.060141      0.147057
Ti	      2.01321      4.41494      6.38630         0.017139      0.414012      0.078878
Ti	      2.12521      2.14010      4.16435         0.280338      0.065592     -0.295950
Ti	      4.08871      4.20572      4.17732        -0.078359     -0.281680     -0.243819
Ti	      6.29121      6.31714      8.62632         0.281907     -0.116188      0.379208
Fe	      4.13492      6.38348      6.35764        -0.408701     -0.221065      0.318146
Ni	      4.12699      8.46763      8.44557        -0.112374      0.154306     -0.020341
Ni	      6.29569      8.44712     10.62729        -0.123219     -0.031361     -0.016058
Ni	     10.25522      6.35644      8.47068         0.009147      0.049750     -0.053445
O	      2.04153      2.11566      2.28750        -0.037472     -0.006745      0.293140
O	      4.10870      4.25703      2.26513         0.017604     -0.034522      0.245004
O	      4.17131      2.17697      4.18207        -0.152700      0.097331      0.131604
O	      6.14329      4.28393      4.36849        -0.021478      0.113048      0.008910
O	      6.18050      2.26787      6.39232         0.045518      0.085205     -0.029906
O	      8.18280      4.24243      6.35884        -0.372904     -0.043738     -0.007045
O	      2.07901      4.12937      4.40598        -0.009558     -0.068785      0.031022
O	      4.21076      6.25939      4.23441        -0.053674      0.015714     -0.134190
O	      4.07019      4.23162      6.21786         0.061872     -0.200982     -0.203752
O	      6.23324      6.29078      6.29386         0.485315     -0.049186     -0.098770
O	      6.17900      4.33375      8.33389         0.041528      0.100356     -0.092847
O	      8.18745      6.33943      8.47683        -0.294080      0.002541      0.006945
O	      2.04202      6.23342      6.40457        -0.367158     -0.239736     -0.069789
O	      4.24470      8.47038      6.39384         0.110756      0.480916     -0.150103
O	      4.28425      6.42962      8.39888         0.094709     -0.201151      0.210328
O	      6.22359      8.36113      8.35982         0.080019     -0.031726     -0.052110
O	      6.21192      6.38225     10.46055        -0.017898     -0.110126     -0.327608
O	      8.23370      8.48264     10.61576         0.149180      0.007331     -0.029910
