# total energy = -45.86606498 eV
 
CRYSTAL
PRIMVEC
-0.000664 2.147430 2.149795 
2.133694 2.190393 -4.343224 
-4.294686 2.186425 -2.187503 
PRIMCOORD
8 1
Li	     -2.20175      4.44349     -2.20837        -0.233646     -0.430383      0.418572
Li	     -0.04716      2.34650     -2.34631        -0.140647      0.015614     -0.019375
Mn	      0.00009      0.00166      0.00066        -0.393261      2.958740     -2.762845
Ni	     -2.23345      2.25553     -0.01910         0.960003      0.203984     -0.432028
O	     -2.25338      4.66968     -4.67439         0.325828     -1.512977      1.779266
O	     -2.37132      2.25658     -2.25350         0.034960     -0.426401      0.605008
O	      0.12358      4.53259     -2.30163        -0.220090     -0.386401      0.189549
O	      0.00552      2.11908      0.11909        -0.333149     -0.422177      0.221853
