# total energy = -245.73702824 eV
 
CRYSTAL
PRIMVEC
0.006820 6.316142 6.243683 
6.251173 0.025786 6.224688 
4.196802 4.227602 -0.012119 
PRIMCOORD
36 1
Li	     10.41739     10.52889     12.43947        -0.063431     -0.016592     -0.026759
Li	      8.33924      4.26855      4.20251        -0.019712      0.020085      0.054164
Li	      6.21610      2.15207      8.27618        -0.019772      0.019990      0.003528
Li	      6.27311      6.36019      4.24322        -0.016304      0.012029      0.026393
Li	      4.17481      4.22638      4.33152         0.024291      0.015469     -0.108342
Li	      4.14734      2.29692      6.19775         0.019015     -0.105916     -0.017869
Li	      2.29047      4.18039      6.18596        -0.045679     -0.017832     -0.009423
Li	      4.21823      6.14922      6.19552         0.032750      0.074603     -0.034961
Li	      4.16928      4.20830      8.12501        -0.002820     -0.006425      0.092175
Ti	      2.10242      6.39275      8.25395         0.035095      0.112679     -0.048596
Ti	      6.17732      2.15165      4.25942        -0.245096      0.135079      0.329196
Ti	      2.23131      6.32050      4.24532         0.601618      0.003593      0.150659
Ti	      2.21501      4.18710      2.03214         0.014317      0.005801     -0.247060
Ti	      6.17835      6.37405      8.19845        -0.011749     -0.051009     -0.495253
Fe	      4.19461      8.44082      8.20663        -0.052387      0.002775      0.086334
Fe	      4.17045      8.44113      4.27266        -0.018782     -0.053352      0.044538
Co	      2.08473      2.06543      0.03220        -0.011390     -0.083010      0.035758
Ni	      6.18603      4.25502      6.22253         0.136307      0.020285     -0.109030
O	      2.04890      2.11970      2.17396        -0.135411      0.075998      0.035535
O	      4.20859      4.27860      2.01678        -0.001337      0.106329      0.021252
O	      4.31194      2.09674      4.05718         0.241605      0.009610      0.076784
O	      6.30833      4.11619      3.99310         0.023395     -0.068828     -0.039234
O	      6.22946      2.16942      6.12942        -0.082319     -0.181102     -0.228782
O	      8.27163      4.23673      6.36991         0.179709      0.006339      0.211637
O	      2.11608      4.32347      4.05261         0.076954      0.031711     -0.043924
O	      4.07331      6.32821      4.13812        -0.509012     -0.075207      0.007854
O	      4.24442      4.21086      6.22624        -0.222596      0.001920      0.027872
O	      6.28429      6.33671      6.35873         0.013265      0.123828      0.386765
O	      6.35368      4.38374      8.37002         0.045585      0.070088     -0.004829
O	      8.26403      6.22451      8.40764        -0.042323     -0.006718     -0.016785
O	      2.08714      6.28309      6.24504        -0.001496     -0.101899     -0.122503
O	      4.18278      8.47649      6.24384         0.097726      0.023640     -0.023193
O	      4.17640      6.31257      8.30121        -0.034446     -0.107243      0.016881
O	      6.32088      8.43208      8.33958         0.097001     -0.062296     -0.002332
O	      6.31417      6.45819     10.30405         0.019421      0.073934      0.005841
O	      8.25451      8.32530     10.34604        -0.121994     -0.008359     -0.034290
