# total energy = -250.74506660 eV
 
CRYSTAL
PRIMVEC
-0.003752 6.360613 6.445686 
6.167813 0.034775 6.407309 
4.132385 4.234872 0.003149 
PRIMCOORD
36 1
Li	      2.08708      8.45220      6.39718         0.053547      0.005432     -0.064745
Li	      4.13316      6.40098     10.69664         0.011715     -0.012993     -0.013160
Li	     10.18136      6.40529      8.62904         0.002076     -0.022439      0.047313
Li	      4.07424      4.26995      4.28313        -0.025274     -0.003614     -0.021888
Li	      8.22232      6.40661      6.56371        -0.024654      0.009804      0.077317
Li	      8.27772      6.41031     10.54538         0.011480      0.032294     -0.014400
Li	      4.10051      6.35688      6.40900        -0.016365      0.010239     -0.003991
Li	      8.24134      8.32066      8.58644         0.015335     -0.036409      0.033401
Li	      6.26498      6.38963      8.57910        -0.067016     -0.006436      0.010198
Ti	     10.19402      4.33395      6.39874        -0.011298     -0.027864     -0.028154
Ti	      2.16303      6.37198      8.53907         0.291264      0.014961     -0.159879
Ti	      6.23264      8.50047     10.74973         0.209149     -0.065054     -0.029114
Ti	      6.09856      6.37828      4.31546        -0.459307      0.170609      0.027890
Ti	      6.07852      4.23246      6.53075        -0.342240      0.040555      0.291025
Fe	      4.10730      8.45233      8.58687         0.044145      0.082633     -0.154256
Fe	      8.24841      4.43170      8.52204         0.010512     -0.215420      0.132695
Fe	     10.18053      8.55345     10.64932        -0.005775     -0.033503     -0.009656
Fe	      2.15716      4.22723      6.45395         0.034952     -0.026535     -0.012486
O	      2.01186      2.04821      2.29474        -0.045741     -0.102858      0.123270
O	      4.22144      4.26257      2.02479         0.136108      0.010710     -0.146145
O	      4.16761      2.15657      4.20509         0.003590     -0.076806      0.098084
O	      6.18867      4.27182      4.25419         0.032170      0.033258     -0.025753
O	      6.16869      2.16154      6.35951         0.007249     -0.003990     -0.049798
O	      8.26177      4.21375      6.38612         0.141219      0.027994     -0.079426
O	      2.02305      4.08511      4.30523         0.043915     -0.256505     -0.030095
O	      4.23515      6.35595      4.33572         0.449799     -0.049997     -0.015744
O	      4.20958      4.22902      6.38971         0.436439     -0.010493      0.019275
O	      6.23249      6.21721      6.29897        -0.041805     -0.125047     -0.100264
O	      6.13082      4.24928      8.40955        -0.091461     -0.027541     -0.361296
O	      8.22313      6.34328      8.58959        -0.032786      0.210244     -0.054923
O	      1.98465      6.41688      6.59790        -0.051871      0.035632      0.184955
O	      4.20512      8.63800      6.47141        -0.133996      0.184074      0.036288
O	      4.01366      6.35776      8.52157        -0.296316     -0.060113      0.095548
O	      6.22051      8.58815      8.67064         0.063029      0.131768      0.060051
O	      6.18091      6.48300     10.84088        -0.018236      0.125317      0.107717
O	      8.14075      8.51535     10.73018        -0.333551      0.038092      0.030146
