# total energy = -208.98291654 eV
 
CRYSTAL
PRIMVEC
0.003687 6.264059 6.388592 
6.166912 -0.005730 6.398014 
4.121216 4.192572 -0.013942 
PRIMCOORD
36 1
Li	      4.10814      4.10531      0.12272        -0.008571      0.059940     -0.040294
Li	      2.12401      8.36979      6.41758        -0.135766     -0.032582      0.093483
Li	      4.05382      8.43165      8.36571         0.001430     -0.042802     -0.001353
Li	      4.11056      6.22971      2.14425         0.002461      0.031486     -0.025832
Li	      8.29612      4.21046      8.39223         0.024146      0.037365     -0.018734
Li	      8.25409      6.28357      6.46260        -0.019605     -0.038075      0.003597
Li	      4.12933      8.26549      4.35406        -0.001215     -0.008992      0.028196
Li	      8.27139      6.30068     10.59402         0.039194     -0.044844     -0.078330
Li	      4.09191      6.35526      6.32402         0.031823      0.043148     -0.065660
Sc	      8.26929      4.17131      4.35253         0.151277      0.135637     -0.009968
Mn	      2.01916      6.28962      8.44283         0.275958     -0.018517     -0.105242
Cr	      6.13927      4.18519      6.42540         0.196948     -0.003681      0.003058
Fe	      6.19671      2.03433      4.38584        -0.398231      0.003425     -0.232784
Fe	      6.24692      6.27149      8.45935         0.019521     -0.037987      0.045446
Cu	      2.03827      2.17184      4.20531         0.115906      0.206919     -0.096810
Cu	      4.07901      4.22512      4.24242        -0.133180      0.049216     -0.119235
Cu	      2.00118      4.20820      6.35457        -0.122578     -0.060726      0.003952
Cu	      4.14033      4.14114      8.50740         0.081214     -0.196358      0.071613
O	      4.25830      6.20194      4.24355        -0.292017     -0.188914     -0.028670
O	      4.09701      4.18468      6.34806        -0.317534      0.057380     -0.057471
O	      8.16309      6.35265      8.51478         0.211689      0.116979      0.038752
O	      4.21792      8.37870      6.33911         0.265239     -0.010527      0.043297
O	      2.09139      1.86678      2.11384        -0.063212      0.033414      0.058898
O	      4.26294      4.17281      2.14819        -0.232360      0.015698      0.317913
O	      4.07178      2.12185      4.23823         0.188668     -0.036212     -0.030559
O	      6.12772      4.13541      4.23132        -0.026518     -0.139643     -0.005483
O	      6.13260      2.20269      6.27296         0.024966     -0.002249      0.234856
O	      8.12631      4.18731      6.36745         0.051629     -0.046729      0.048903
O	      2.13052      4.17079      4.37507         0.103124     -0.058685     -0.432695
O	      6.16169      6.24478      6.49691        -0.072146     -0.136036     -0.176186
O	      6.12477      4.26094      8.40170        -0.072737     -0.072528     -0.035367
O	      2.04509      6.19041      6.58266        -0.022020      0.371544      0.334933
O	      4.04885      6.16135      8.57520        -0.170640      0.051849     -0.007046
O	      6.22650      8.40990      8.52387        -0.191580      0.123792      0.405819
O	      6.15147      6.35767     10.49522        -0.016707     -0.129988      0.161383
O	      8.13890      8.36741     10.68202         0.511423     -0.031720     -0.326379
