# total energy = -209.04470187 eV
 
CRYSTAL
PRIMVEC
0.020648 6.254502 6.266586 
6.168402 0.022502 6.264424 
4.137571 4.193352 -0.010127 
PRIMCOORD
36 1
Li	     10.19358      4.20534      6.31579        -0.051899     -0.019301     -0.021219
Li	      8.25078      2.22869      6.30670         0.028194      0.015729      0.013721
Li	      4.08444      2.12492      2.09881        -0.044876      0.018432     -0.032287
Li	      8.22114      4.26867      4.25188        -0.035310      0.054533      0.002060
Li	      6.09172      2.14618      4.22744        -0.004106     -0.018489      0.010897
Li	      8.30536      4.16792      8.22205         0.039611      0.008369     -0.050496
Li	      4.17430      4.07400      4.16757        -0.027882     -0.016421     -0.092169
Li	      4.13463      2.05126      6.18230        -0.011322     -0.079563     -0.048347
Li	      4.16203      6.26657      6.34189        -0.030150      0.043115      0.030077
Sc	      2.10546      6.24536      4.29895         0.019259     -0.000804      0.085696
Mn	      6.18986      2.10005      8.27488         0.033768     -0.011126      0.003050
Cr	      2.08183      6.26202      8.35671         0.075552     -0.056983     -0.059959
Fe	      4.12811      8.39915      4.28739         0.037209      0.045164     -0.213720
Fe	      6.09982      6.31957      8.29669         0.127653     -0.027501      0.151137
Ni	      6.20762      4.18171      6.20788        -0.057746      0.037713     -0.030416
Ni	      6.23510      8.33996      6.26066        -0.010311     -0.022479     -0.002178
Ni	      2.11014      2.07902      4.17072        -0.088808      0.056119     -0.000021
Ni	      4.13302      4.18528      8.33920         0.020130     -0.014239      0.110492
O	      3.98979      2.13122      4.11852         0.126095     -0.054495      0.014441
O	      8.08977      4.18332      6.25307         0.250012      0.066471     -0.042869
O	      1.95515      2.00125      2.09912        -0.049394      0.059218     -0.155173
O	      4.20149      4.38674      2.03584        -0.026663     -0.005065     -0.019699
O	      6.18365      4.27735      4.08526        -0.037873     -0.039948     -0.014719
O	      6.18236      2.21179      6.39352        -0.021506     -0.121475      0.015094
O	      2.03391      4.11771      4.22513         0.160457      0.027765     -0.083768
O	      4.22774      6.33792      4.01916        -0.030706     -0.078238     -0.040321
O	      4.21677      4.18751      6.37152        -0.085568     -0.027206      0.027237
O	      6.20608      6.21605      6.33574         0.011288      0.022064     -0.054457
O	      6.18621      4.14729      8.37766         0.117312     -0.042843      0.052164
O	      8.34511      6.32092      8.39713         0.028088     -0.047125     -0.023918
O	      2.10694      6.20709      6.33072         0.019895      0.074405     -0.022389
O	      4.17742      8.37528      6.15952        -0.063892     -0.026097      0.366848
O	      4.13470      6.21633      8.34795        -0.140783      0.016754      0.010872
O	      6.21876      8.35642      8.31441        -0.108715      0.084539      0.084903
O	      6.23047      6.23185     10.29010         0.037337      0.082276      0.078754
O	      8.34223      8.33154     10.35032        -0.204347     -0.003270     -0.049321
