# total energy = -217.24012391 eV
 
CRYSTAL
PRIMVEC
0.022331 6.369513 6.258931 
6.210830 0.030599 6.249454 
4.161865 4.260638 -0.000351 
PRIMCOORD
36 1
Li	      2.06250      8.39041      6.23867         0.016680      0.058433     -0.043894
Li	      6.27999     10.53928      8.31010         0.101365     -0.057622      0.150128
Li	      6.27358      2.23890      4.15438         0.047747     -0.060396      0.006014
Li	      6.23227      6.35079      4.29084         0.000694      0.006743     -0.029064
Li	      6.14277      4.34142      6.13754        -0.018549     -0.060431      0.050917
Li	      2.11681      6.35418      4.29566        -0.015694      0.055341     -0.096598
Li	      2.13773      4.32525      6.24702        -0.051309     -0.112315      0.004423
Li	      4.09379      6.24664      6.16442        -0.019892      0.033420      0.008107
Li	      4.08553      4.33096      8.29896        -0.036541     -0.023362      0.040495
Sc	      6.27805      6.44321      8.24100         0.015113      0.038904      0.007410
Mn	      8.22088      4.23420      4.16722         0.111434     -0.054342     -0.022602
Cr	      2.09627      4.24759      2.09941        -0.160473      0.027549      0.080449
Fe	      4.19693      8.49805      8.31720        -0.219157     -0.119146      0.039039
Fe	      0.06706      2.15078      2.12247        -0.012190      0.132579     -0.212800
Fe	      4.18584      8.45975      4.28910        -0.223405      0.208502      0.116067
Co	      0.10528      6.39016      6.25691         1.312112     -0.145302     -0.399058
Cu	      4.17459      4.31103      4.24566        -0.015428     -0.031880      0.345738
Cu	      4.14698      2.20624      6.14603         0.045033      0.052326      0.262427
O	      4.15593      4.18329      6.16025         0.018753      0.129118     -0.219405
O	      1.91513      6.40798      6.26217         0.020948     -0.043495      0.044323
O	      2.09653      2.26600      2.04008        -0.053619      0.041838      0.088016
O	      4.11466      4.26261      2.26066        -0.090666      0.017449     -0.397302
O	      4.14688      1.97797      4.08794        -0.018968     -0.180267      0.202877
O	      6.36004      4.22075      4.18335         0.065522      0.103796     -0.053532
O	      6.17281      1.99712      6.39313        -0.318088      0.808399     -0.110235
O	      8.47483      4.39210      6.18312        -0.498884      0.018309      0.121664
O	      2.00976      4.26668      4.08979         0.173044      0.063713     -0.203442
O	      4.14452      6.51813      4.12220        -0.003805     -0.303423      0.150630
O	      6.30779      6.37325      6.26395        -0.092387     -0.080922     -0.230792
O	      6.28800      4.22536      8.35480         0.215967      0.051524      0.020634
O	      8.37324      6.32596      8.34942        -0.017656     -0.111967     -0.265461
O	      4.16304      8.68479      6.30818        -0.192810     -0.851727     -0.102673
O	      4.15688      6.45329      8.44742        -0.176925     -0.109414      0.039309
O	      6.12928      8.45818      8.32739         0.263752      0.217666      0.026030
O	      6.13566      6.28319     10.37097        -0.183027      0.114244      0.624915
O	      8.37751      8.68538     10.42794         0.011309      0.166156     -0.042754
