# total energy = -214.18235225 eV
 
CRYSTAL
PRIMVEC
0.027182 6.303881 6.274301 
6.176123 0.037101 6.264855 
4.149232 4.227775 -0.007086 
PRIMCOORD
36 1
Li	      4.19302     10.47536      6.25139        -0.037658      0.012989      0.044507
Li	      4.22988      6.29928     10.41228         0.008161     -0.026305      0.023900
Li	      6.29864      8.25122     10.40922        -0.003409     -0.037735     -0.017378
Li	      4.18296      6.29442      2.25573         0.013216      0.041309      0.010193
Li	      2.16042      4.18364      2.19519        -0.004422     -0.027191     -0.001942
Li	      4.10407      4.35008      4.07359        -0.026543      0.012057     -0.005169
Li	      6.20942      4.21415     10.40018        -0.011972     -0.002973     -0.019377
Li	      8.19511      6.37874     10.38232         0.018148      0.027504      0.042038
Li	      4.13626      6.35409      6.16220        -0.009614      0.042838      0.034855
Sc	      4.20894      2.04513      6.24968         0.056934     -0.140652     -0.071647
Mn	      8.31681      8.43874     12.40922         0.142669     -0.014410      0.050275
Cr	      8.30190      8.45967      8.44995        -0.132427     -0.002987     -0.080244
Fe	      6.12274      4.31191      2.13709         0.092846      0.018973     -0.030103
Fe	      6.17418      4.24484      6.27252         0.077348     -0.024566     -0.104042
Fe	      1.97975      4.31282      6.21023         0.020605      0.056736      0.132390
Cu	      6.17450      6.38882      4.18887         0.155615      0.027500      0.019698
Cu	      6.20429      6.28875      8.46411         0.028630      0.062349     -0.053475
Ni	      4.12053      2.15663      2.14447         0.060981     -0.014393     -0.060630
O	      4.34999      6.36352      4.19754        -0.201628     -0.006548      0.027870
O	      6.20810      6.31936     10.28562         0.012213     -0.022336      0.154568
O	      2.10372      2.03828      1.79527        -0.133741      0.148931      0.048230
O	      4.22587      4.20693      2.07160        -0.300091      0.135535      0.013530
O	      3.95319      2.14073      4.19682         0.046652     -0.002114      0.154969
O	      6.16268      4.49347      4.20966         0.029557     -0.039463      0.063365
O	      6.28062      2.22211      6.12789        -0.018915     -0.109343     -0.017992
O	      8.20321      4.14304      6.24887         0.087612      0.012519     -0.040451
O	      2.07628      4.06207      4.32831         0.018156     -0.003272     -0.257697
O	      4.11071      4.16800      6.40859        -0.011833     -0.016807     -0.005418
O	      6.23787      6.33569      6.54957        -0.033002      0.025007     -0.041084
O	      6.09989      4.17356      8.25066         0.224214     -0.266040      0.036753
O	      8.23303      6.43359      8.36539        -0.090697      0.029328      0.050843
O	      2.09117      6.35865      6.25013         0.025917      0.127894     -0.005282
O	      4.13199      8.43936      6.30453        -0.180148      0.003191     -0.098126
O	      4.11189      6.27186      8.41035         0.158553     -0.054993      0.000425
O	      6.25726      8.60204      8.28168        -0.026080      0.062161      0.059804
O	      8.29654      8.43482     10.49729        -0.055846     -0.034693     -0.058152
