# total energy = -222.28164340 eV
 
CRYSTAL
PRIMVEC
-0.026688 6.262654 6.386576 
6.255840 -0.013345 6.373032 
4.163051 4.158647 -0.001535 
PRIMCOORD
36 1
Li	      6.25944      4.18228      2.16682         0.020838     -0.015898      0.050696
Li	      2.04473      4.18039      2.29081        -0.028144     -0.031090      0.052962
Li	      2.10894      2.21421      4.31558         0.028801      0.033747      0.011706
Li	      3.99345      4.19107      4.39639        -0.037767      0.018826      0.109554
Li	      8.21431      6.29727      6.32960        -0.044222      0.040829     -0.033927
Li	      0.13248      4.10040      4.27021         0.015622     -0.030383      0.006825
Li	      6.22654      8.19966      6.25458         0.015385     -0.028442     -0.018949
Li	      4.28588      6.24594      6.23130         0.040941      0.001303     -0.122171
Li	      6.23052      6.26028      8.37687         0.009947      0.055433     -0.074093
Sc	      4.11994      4.22108      8.43076        -0.105921      0.026431     -0.110036
Mn	      4.15250      4.14029      0.01681         0.048241     -0.058982     -0.022033
Cr	      2.08236      6.15320      4.24381         0.013660     -0.119903     -0.001539
Fe	      2.09247      8.31371      6.44182         0.012435      0.023705      0.057677
Fe	      6.15538      2.10825      4.18533        -0.024329     -0.005288      0.009447
Fe	      4.19119      6.22140      2.23078         0.016378      0.013823      0.039002
Fe	      6.20147      4.34971      6.36027         0.069821      0.007795     -0.014215
Co	      4.16933      6.23785     10.63759        -0.142809      0.095979     -0.079048
Ni	      4.15168      2.05566      2.14824         0.056082     -0.075387      0.063918
O	      2.04430      2.07124      2.02344        -0.152687     -0.023408     -0.061669
O	      4.15232      4.18664      1.90775        -0.024788      0.097998     -0.070504
O	      4.20547      1.92018      4.22379         0.044252     -0.032261      0.090828
O	      6.42175      4.06813      4.36414         0.028277      0.032389     -0.030477
O	      6.29282      1.96458      6.36683        -0.035537     -0.118307     -0.005511
O	      8.40142      4.09340      6.21111         0.160750     -0.001938      0.005916
O	      2.05893      4.24061      4.26804        -0.019758      0.149943     -0.026990
O	      4.06787      6.23510      4.17715        -0.024183     -0.009175      0.028812
O	      4.24771      4.17775      6.40098        -0.085517     -0.013570      0.006952
O	      6.24704      6.20554      6.37593         0.038182      0.090498      0.012392
O	      6.24642      4.06339      8.35802         0.033184      0.031901      0.041455
O	      8.39304      6.26476      8.62399        -0.013391     -0.035078     -0.010671
O	      1.92122      6.31380      6.27772        -0.178583     -0.086892      0.004602
O	      4.07045      8.46556      6.43377         0.074471      0.117614     -0.121009
O	      4.15425      6.26112      8.70788         0.064733     -0.015700      0.131372
O	      6.21636      8.33468      8.61983         0.061802     -0.007984      0.014069
O	      6.18851      6.29510     10.79578         0.054794     -0.059710      0.031203
O	      8.25784      8.36568     10.67514         0.009039     -0.068817      0.033455
