# total energy = -219.75333843 eV
 
CRYSTAL
PRIMVEC
0.013886 6.210769 6.271177 
6.326844 0.016817 6.268108 
4.226618 4.147032 0.002642 
PRIMCOORD
36 1
Li	      6.33037      4.11936      2.13048        -0.019928     -0.020242      0.029552
Li	      6.36118      2.14046      4.17235         0.009993      0.056374     -0.025568
Li	      2.14477      4.14549      2.15440        -0.023561      0.043462      0.094268
Li	      4.24999      4.17915      4.23556         0.045580      0.007438      0.028092
Li	      6.21226      4.16861      6.23428        -0.151265      0.059264     -0.001376
Li	      4.23746      8.24556      4.15267         0.001844     -0.037229     -0.000485
Li	      2.15925      6.22282      4.19444         0.017743      0.018122     -0.008856
Li	      4.23927      6.13266      6.23856         0.031911     -0.022259     -0.021520
Li	      4.26644      4.13347      8.34291         0.040655      0.017244     -0.014301
Sc	      6.41291      6.13772      8.40661         0.095580     -0.102435     -0.071050
Mn	      4.21995      2.11937      2.10571         0.047846     -0.049542      0.024759
Cr	      2.11995      8.26088      6.26478        -0.013351     -0.056311      0.013105
Fe	      8.39728     10.29512     10.44655         0.029389      0.065051     -0.053491
Fe	     10.44945      6.32118      8.42317         0.041001     -0.196016      0.000458
Fe	      6.27774      6.21812      4.21117        -0.000990     -0.002273     -0.024927
Fe	      2.25326      4.22149      6.19479        -0.166172     -0.013446      0.074749
Cu	      6.35663      6.22020     12.49799         0.048085     -0.021327     -0.043900
Ni	      4.26342      2.11088      6.25153         0.019246      0.014847     -0.028829
O	      4.15562      4.13992      6.29765         0.154415      0.112490      0.006704
O	      2.20930      2.08777      2.06746         0.049930     -0.015746     -0.072488
O	      4.22427      4.07033      1.99660         0.000070      0.029000      0.141474
O	      4.16711      2.07833      4.06512         0.088816      0.031301     -0.140499
O	      6.42064      4.23661      4.21639        -0.086331     -0.135240     -0.003741
O	      6.39078      1.99965      6.39167         0.035164      0.166143     -0.187700
O	      8.56149      4.14307      6.19554        -0.148205     -0.039508      0.164546
O	      2.07541      4.06057      4.28357        -0.013203      0.117255     -0.204360
O	      4.31266      6.17578      4.05712        -0.119788      0.023355      0.206211
O	      6.39823      6.28113      6.25288        -0.136828     -0.075754      0.073076
O	      6.32795      4.10950      8.32738         0.018532      0.072440     -0.044891
O	      8.48961      6.22202      8.32929        -0.100820     -0.001272      0.128883
O	      2.04868      6.23527      6.23369         0.151818      0.123677      0.073300
O	      4.15891      8.32438      6.42161         0.065362     -0.132140     -0.028410
O	      4.27341      6.36754      8.41023        -0.054518      0.059544     -0.136210
O	      6.15930      8.28556      8.26188        -0.062879      0.059808      0.099825
O	      6.25394      6.23513     10.46519         0.073273      0.016899      0.010678
O	      8.41984      8.35470     10.55669         0.031587     -0.172972     -0.057078
