# total energy = -210.75003313 eV
 
CRYSTAL
PRIMVEC
0.037148 6.152969 6.330533 
6.243806 0.028230 6.339078 
4.172011 4.117416 0.009442 
PRIMCOORD
36 1
Li	     10.33248      4.09838      6.33963         0.017018      0.089304      0.139337
Li	      6.23078      4.06565      2.16593        -0.073894      0.043821      0.170381
Li	      4.32814      8.25467      8.37285         0.046175      0.082204      0.055069
Li	      8.47627     10.21690     10.62096        -0.072050      0.058687      0.035213
Li	      6.25583      8.28508     10.47229        -0.027950      0.140908     -0.032061
Li	      8.37067      4.10501      8.31004         0.077662     -0.059374     -0.017567
Li	      6.30613      4.10305      6.33112         0.031318     -0.047918     -0.138690
Li	     10.36353      8.31585     10.63579         0.056580     -0.057025     -0.022275
Li	      6.25214      8.24151      6.43646         0.006809      0.078651     -0.013733
Sc	      6.29632      6.17957      4.27775         0.055061     -0.250680     -0.306456
Mn	      6.26839      2.06620      8.39141         0.316151     -0.254343     -0.239070
Mn	      8.32521      8.27858      8.47376        -0.195215      0.123874      0.136560
Cr	      8.27833      6.19107     10.62521        -0.167401     -0.149699     -0.248496
Co	      4.17705      4.12162      4.17012        -0.023714     -0.402222      0.029928
Cu	      4.20057      6.20724      6.43101        -0.066569     -0.081805     -0.040773
Ni	      8.34224      2.15672      6.34202        -0.276718      0.122357      0.055901
Ni	      4.21080      2.02287      6.29843         0.188640     -0.091364     -0.002523
Ni	      6.26376      6.16198      8.42661         0.013167     -0.012764      0.071497
O	      4.11933      8.11120      6.35710         0.265440     -0.348550      0.014947
O	      1.91620      2.08048      2.11972        -0.107798      0.052443      0.016991
O	      4.16575      4.24658      2.17084        -0.009170      0.105952     -0.198182
O	      4.17003      2.18508      4.25764        -0.021932      0.085792     -0.080656
O	      6.03524      4.14817      4.25897         0.551340      0.163611     -0.030759
O	      6.26238      2.04681      6.50423        -0.112230      0.055839      0.150404
O	      8.35398      4.13544      6.27947        -0.034076      0.138197      0.008836
O	      2.25710      4.17551      4.25539        -0.568585      0.333890     -0.057879
O	      4.10748      6.10109      4.04208        -0.129059      0.077238      0.107273
O	      4.17500      4.19098      6.47513         0.031278      0.334299      0.237849
O	      6.28577      6.18036      6.36598        -0.330594      0.027728      0.130171
O	      6.12421      4.03879      8.47257        -0.072067     -0.019881      0.026246
O	      8.42755      6.26822      8.48950        -0.014614      0.093683      0.024696
O	      2.17843      6.25849      6.13789         0.237260     -0.111618      0.107300
O	      4.22753      6.03794      8.56989        -0.041532     -0.061067     -0.109514
O	      6.42705      8.19664      8.44223         0.183439      0.069654     -0.018558
O	      6.46451      6.13150     10.47193         0.180850     -0.180941      0.193254
O	      8.33863      8.14809     10.47184         0.086979     -0.148884     -0.154661
