# total energy = -210.49485186 eV
 
CRYSTAL
PRIMVEC
0.004305 6.267926 6.410028 
6.112104 0.031393 6.384095 
4.072397 4.158565 0.023476 
PRIMCOORD
36 1
Li	      4.10358     10.38914      6.49139        -0.010197     -0.007219      0.045411
Li	      6.11674      8.37571     10.52712         0.100282     -0.021018     -0.141407
Li	      2.02412      4.18138      2.21069         0.018758     -0.006739      0.020260
Li	      6.10924      6.25251      4.35008        -0.006135     -0.010154     -0.008035
Li	      4.05537      8.26847      4.27201        -0.070629      0.015929     -0.075511
Li	      6.05820      8.28635      6.54935         0.007555     -0.013654      0.056409
Li	      4.19304      6.27606      6.38200        -0.063638      0.060770     -0.015888
Li	      4.07584      4.23466      8.52866        -0.026187      0.022096      0.044926
Li	      6.09913      6.31108      8.42613         0.032049      0.010736      0.018351
Sc	      2.07339      2.11381      0.01966         0.176427     -0.055369     -0.145060
Mn	      4.06984      6.29606     10.58116         0.083962     -0.128903      0.014542
V	      1.91684      6.05926      4.30474        -0.129956      0.069119      0.034053
Cr	     10.16932      6.33016      8.60432         0.075885     -0.087775      0.011693
Cu	      4.05192      2.13169      6.36729         0.011807     -0.003640      0.024698
Cu	      6.08061      4.24267      6.44928         0.110633     -0.104202      0.021808
Ni	      6.10914     10.38289      8.56967         0.042350     -0.026349     -0.128124
Ni	      4.10559      8.35104      8.53659        -0.196999      0.055820     -0.152152
Ni	      4.10859      4.15413      4.28621        -0.021075     -0.024017     -0.095717
O	      6.19115      6.18827      6.40260        -0.001927      0.143716     -0.049290
O	      2.03998      2.05685      2.11166        -0.161234      0.074087      0.054824
O	      4.08528      4.24593      2.26353        -0.167557      0.114180     -0.060770
O	      4.10302      1.98900      4.04167        -0.008231      0.012154      0.398031
O	      6.20861      4.17787      4.28250         0.126982      0.049742      0.073234
O	      6.04783      2.14185      6.54697        -0.124005      0.024912      0.104549
O	      8.14257      4.26367      6.20291         0.032936      0.105021     -0.203514
O	      2.01449      4.30035      4.30834        -0.075935     -0.063661      0.023878
O	      3.92455      6.26480      4.23296        -0.033563     -0.062031      0.083697
O	      4.13861      4.10215      6.28342        -0.115964     -0.029176      0.104013
O	      6.14395      4.10409      8.44579         0.021675      0.086935      0.018063
O	      8.19021      6.33558      8.84863        -0.140853     -0.025242      0.053374
O	      2.04501      6.31901      6.16780         0.042509     -0.030518     -0.016135
O	      4.07305      8.35968      6.62075        -0.007126     -0.010176     -0.319935
O	      4.04967      6.26050      8.68644         0.147983     -0.061607      0.136330
O	      5.99358      8.41216      8.51808         0.364280     -0.118609      0.004028
O	      6.21018      6.28031     10.66082        -0.054607     -0.012407      0.007314
O	      8.16925      8.51365     10.72265         0.019746      0.057248      0.058053
