# total energy = -214.86368156 eV
 
CRYSTAL
PRIMVEC
0.017984 6.073638 6.290238 
6.427339 0.022843 6.283885 
4.323545 4.083618 -0.022770 
PRIMCOORD
36 1
Li	      2.07235      0.07635      2.01039         0.034640      0.044814      0.059492
Li	      0.07538      2.02214      2.06744        -0.044287      0.015312      0.083313
Li	      6.33124      6.15418      4.28866        -0.130317      0.107231      0.065569
Li	      4.28164      4.24640      4.16650        -0.047534      0.043580     -0.023097
Li	      8.44227      6.15792      6.34302        -0.099026     -0.053432      0.118824
Li	      6.38116      4.16363      6.37943        -0.031519      0.085206     -0.040124
Li	      2.39531      6.03697      4.25216         0.068894     -0.057366     -0.166519
Li	      4.39403      6.07583      6.17840         0.102831     -0.029220     -0.103176
Li	      6.48485      6.02892      8.20014         0.125568      0.013058      0.034768
Sc	      6.47076      8.02565     10.47637         0.170800      0.211048     -0.166962
V	      8.42808      4.20649      4.20066        -0.180371     -0.277460     -0.053566
Cr	      4.35207      3.99508      8.34793         0.411712     -0.402103      0.336660
Fe	      2.27534      4.04505      6.28948        -0.045934     -0.150567     -0.480584
Co	      2.20674      8.06831      6.27034         0.063995      0.100003      0.070609
Co	      2.23413      4.16626      2.18807         0.327829     -0.564682     -0.384880
Co	      4.39665      8.01825      4.12867        -0.072053      0.659172     -0.307283
Cu	      4.38893      4.07898      0.07142        -0.049203      0.173961      0.042130
Ni	      4.30480      8.11568      8.32225        -0.020790     -0.103922      0.081151
O	      2.23329      2.20844      1.87202        -0.142714     -0.221355      0.016125
O	      4.25276      4.04631      2.08735         0.020043      0.130835     -0.375443
O	      4.32654      1.91447      4.18170         0.035066      0.081834      0.068118
O	      6.61704      4.07828      4.14568        -0.021076      0.005881      0.027557
O	      6.67585      1.96841      6.23644         0.174249     -0.052191      0.090590
O	      8.49079      3.97642      6.04314         0.142651     -0.146990     -0.051909
O	      2.08384      4.10284      4.17027         0.108760     -0.074493      0.754887
O	      4.34805      6.21664      4.16078         0.083883      0.126509     -0.087226
O	      4.26107      4.05632      6.39034         0.093596      0.045460     -0.122421
O	      6.43752      6.24856      6.24947        -0.049552     -0.077195      0.098078
O	      6.37324      4.07173      8.42656        -0.324660     -0.175090      0.547616
O	      8.60624      6.03103      8.33200        -0.281168      0.832454     -0.041100
O	      2.28304      6.10958      6.29210        -0.232945      0.267293      0.122072
O	      4.20707      8.19089      6.27399        -0.126920     -0.114299     -0.362533
O	      4.30737      6.02115      8.64057        -0.031693     -0.063351     -0.051115
O	      6.53933      8.11558      8.35853        -0.034770      0.091657      0.032626
O	      6.18410      6.00607     10.56490         0.129728     -0.571379      0.148538
O	      8.57654      8.17026     10.45413        -0.127715      0.099786      0.019215
