# total energy = -215.96305389 eV
 
CRYSTAL
PRIMVEC
-0.038687 6.148278 6.443644 
6.247846 -0.024182 6.429076 
4.183153 4.107588 -0.033342 
PRIMCOORD
36 1
Li	     10.28272      4.11577      6.37276        -0.149706      0.086449      0.027701
Li	      8.28073      2.16749      6.40122        -0.155612      0.143474      0.066305
Li	      8.32635      4.09539      4.45301        -0.050922     -0.000759      0.170916
Li	      8.23852      4.20197      8.31965         0.020694      0.006298     -0.140439
Li	      4.25800      4.11534      4.24910         0.039043     -0.039106     -0.048257
Li	      8.35129      5.98808      6.42058         0.063322     -0.107171      0.027372
Li	      6.39690      4.11112      6.45579         0.137642     -0.085646     -0.027936
Li	      8.30946      6.15376     10.58919        -0.065945     -0.010238     -0.022257
Li	      6.36806      6.07491      8.60180         0.040690     -0.006209      0.005135
Sc	      4.13604      2.02837      2.17759        -0.108888      0.234824      0.120590
V	      2.13121      4.11309      6.27672        -0.041633     -0.281983     -0.133605
Cr	      8.29630      8.18653      8.55742        -0.008940     -0.074997      0.177943
Fe	      6.22530      1.99085      4.53821         0.108747      0.139412     -0.011938
Fe	     10.37748      6.10306      8.48940         0.059464     -0.030225     -0.284075
Fe	      6.10886      4.17545     10.69235         0.001231      0.251729      0.025301
Cu	      6.23314      4.08088      2.18090        -0.073510      0.091432      0.173335
Cu	      4.16270      6.14196      6.37487         0.053739     -0.151172      0.008469
Ni	      6.27653      6.07112      4.28588         0.288716     -0.004688      0.030940
O	      8.31744      4.06818      6.42083         0.103293     -0.021910      0.052298
O	      2.05072      1.98312      2.18767         0.022583      0.105264     -0.056541
O	      4.23157      4.12094      2.10693        -0.100802      0.007881      0.043871
O	      4.23810      2.06361      4.21804        -0.058498     -0.055420     -0.150972
O	      6.26925      4.01734      4.25895         0.014783     -0.203367     -0.224913
O	      6.26983      2.03973      6.43199        -0.016319     -0.041285      0.358312
O	      2.05174      4.09897      4.48230        -0.004854      0.058623      0.068529
O	      4.24343      6.26359      4.14960        -0.209251     -0.049931      0.198306
O	      3.99900      4.14615      6.51586        -0.024943      0.036703      0.022180
O	      6.22021      6.30705      6.38117         0.047721      0.221474      0.105076
O	      6.13066      4.07304      8.65560         0.025894      0.012057      0.037499
O	      8.42163      6.20626      8.52647        -0.140721      0.013532      0.032413
O	      2.05904      5.92350      6.48432         0.030414      0.057317      0.038687
O	      4.28497      8.11741      6.38621         0.010735      0.116820     -0.147691
O	      4.02092      6.09432      8.56142         0.115869     -0.130220     -0.229902
O	      6.24849      8.18825      8.45280         0.048387     -0.167290     -0.058682
O	      6.26388      6.13368     10.72772        -0.042177     -0.143210     -0.088741
O	      8.29861      8.16163     10.59742         0.019757      0.021537     -0.165233
