# total energy = -225.27063157 eV
 
CRYSTAL
PRIMVEC
0.010070 6.418812 6.257052 
6.269921 0.019740 6.247130 
4.185766 4.278735 0.007492 
PRIMCOORD
36 1
Li	      4.19715     10.63231      6.22942         0.028347     -0.061651      0.089507
Li	      2.18531      8.50307      6.22381         0.053566     -0.071997      0.130465
Li	      4.21219      8.51637      8.27435        -0.086460      0.003055     -0.087381
Li	      4.25981      6.42571     10.34996        -0.047749      0.052042     -0.046638
Li	      8.40566      4.29629      8.29140         0.034413      0.002501     -0.007315
Li	      8.26039      6.52303     10.44381         0.080748     -0.087146      0.019747
Li	      6.20825      8.60979      6.32051        -0.024400      0.062034      0.005919
Li	      8.30030      8.56563      8.42281         0.083386     -0.030970     -0.105066
Li	      6.25361      6.58452      8.41931        -0.027929      0.078505     -0.090869
Sc	      6.35010      4.27625      6.29709        -0.029118      0.202068      0.140206
V	      3.99201      4.24035      4.16018        -0.166161      0.497366     -0.333269
Cr	      4.16832      6.46795      6.26821         0.052228     -0.095432     -0.264469
Fe	      2.15969      6.36446      8.28519        -0.097115      0.539474      0.081055
Fe	      4.19515      6.40160      2.11763         0.065754     -0.312145      0.214017
Fe	      8.36361      6.35587      6.33609        -0.152701      0.152730      0.130720
Fe	      6.10980      4.51717     10.40501         0.869519     -0.473445      0.015640
Co	      6.35728      8.48708     10.40894         0.550388     -0.090580     -0.487753
Co	      2.13292      2.13800      4.13497        -0.155301     -0.076149      0.114573
O	      2.03799      2.00555      2.20929         0.015227      0.283101     -0.065619
O	      4.22972      4.34037      2.19015        -0.041851     -0.124011      0.132364
O	      4.17126      2.26887      4.25627         0.487673     -0.126785      0.085391
O	      6.10998      4.20726      4.18140        -0.000049     -0.370548      0.045739
O	      6.24804      2.16381      6.26014        -0.125367      0.107390     -0.146510
O	      8.34626      4.41606      6.24045        -0.052991     -0.135562     -0.108775
O	      2.20587      4.33088      4.13716         0.085999      0.010643     -0.018003
O	      4.25879      6.30916      4.18020        -0.019653      0.032232      0.126064
O	      4.19772      4.32850      6.13835         0.078157     -0.149840      0.135644
O	      6.28486      6.41690      6.16330         0.052805     -0.109075      0.023073
O	      6.32276      4.15739      8.39814        -0.016419      0.165568      0.025145
O	      8.47299      6.45765      8.24877        -0.119491      0.065150      0.128686
O	      2.18976      6.39354      6.34343        -0.071111      0.053383     -0.280622
O	      4.21578      8.45031      6.09884        -0.010357      0.044486     -0.037156
O	      4.14198      6.46752      8.22813         0.200793     -0.087474      0.259452
O	      6.29139      8.68284      8.50066        -0.106870     -0.689853      0.026249
O	      6.27008      6.40964     10.39564         0.068669      0.876936      0.070313
O	      8.39996      8.59528     10.42603        -1.456582     -0.136001      0.079476
