# total energy = -221.40649248 eV
 
CRYSTAL
PRIMVEC
0.044453 6.294353 6.384212 
6.254498 0.023992 6.404532 
4.189357 4.228869 -0.003687 
PRIMCOORD
36 1
Li	      6.31125      6.35489     12.60019        -0.029125      0.035971      0.005564
Li	      6.32954     10.48392      8.53349         0.017981     -0.028131     -0.022531
Li	      6.29708      6.33725      4.29977        -0.003812      0.021806      0.019225
Li	      8.37152      6.31355      6.41185         0.014366     -0.053343      0.053716
Li	      6.23652      4.36236     10.68032         0.001383     -0.021697     -0.025529
Li	      8.29057      6.35859     10.66858         0.058085     -0.041240      0.002228
Li	      2.11794      4.20032      6.37025         0.010842      0.007705     -0.027396
Li	      8.31394      8.35133      8.62905        -0.030347     -0.001140      0.031272
Li	      6.32557      6.42071      8.63336         0.033724     -0.004265     -0.005124
Sc	      8.30409      4.30142      8.63155        -0.008362      0.068416      0.075004
V	      4.20845      6.33153      6.44814        -0.099588      0.006882      0.018276
Cr	      8.40300      8.42814     12.74771         0.088133     -0.060959      0.029242
Fe	      4.34517      8.44064      8.55289        -0.151694     -0.061217     -0.101945
Fe	     10.40457      6.38793      8.59925         0.091894     -0.105224      0.050208
Fe	      4.16859      4.21719      4.28853         0.059073     -0.030627     -0.030056
Fe	      6.29039      4.23305      6.37520        -0.049756     -0.024691      0.118653
Cu	      4.25863      6.28567     10.64872        -0.076956      0.054707     -0.112608
Ni	      6.33942      8.34708     10.61061         0.015398      0.061098     -0.017062
O	      6.21397      6.33952     10.64362         0.041052     -0.080459     -0.000491
O	      2.13229      2.11392      2.03209         0.006126      0.009607     -0.102324
O	      4.20878      4.22077      2.20393         0.000214      0.038603      0.019449
O	      4.19921      2.10181      4.17698        -0.123817      0.067169      0.062225
O	      6.27691      4.15915      4.37083        -0.026285      0.091031     -0.020052
O	      6.34208      2.16351      6.47961        -0.014314     -0.003238      0.050129
O	      8.28539      4.17082      6.50789         0.065387     -0.011554      0.134356
O	      2.22338      4.18357      4.25699        -0.120364     -0.020843     -0.072257
O	      4.24976      6.24320      4.25645         0.020840      0.028491     -0.082043
O	      4.21801      4.37552      6.31221         0.019881     -0.038623      0.018710
O	      6.08759      6.24905      6.35699         0.037000      0.053843     -0.030830
O	      6.25223      4.14099      8.47350         0.013915      0.066731     -0.066677
O	      8.47070      6.33079      8.49340        -0.148050     -0.075450      0.026572
O	      2.33207      6.38274      6.30076         0.057285      0.016297     -0.008748
O	      4.19043      8.26700      6.39632        -0.013180      0.028965      0.036785
O	      4.18775      6.36602      8.23982         0.004352      0.013175     -0.044269
O	      6.22427      8.43515      8.50228         0.148187      0.012892     -0.044504
O	      8.37001      8.52022     10.76230         0.090532     -0.020687      0.062833
