# total energy = -230.00439952 eV
 
CRYSTAL
PRIMVEC
-0.003764 6.331803 6.273636 
6.369952 -0.005933 6.275774 
4.231379 4.207308 0.011308 
PRIMCOORD
36 1
Li	      4.28673      8.43933      8.32713         0.008999     -0.015302     -0.032463
Li	      6.33917      2.12701      4.16276        -0.026451      0.005785     -0.001764
Li	      6.37181      2.10401      8.34925        -0.005703     -0.008705      0.047974
Li	      8.46227      4.23206      8.38377        -0.035476      0.015133      0.004441
Li	      4.21257      4.24044      4.11651        -0.008736      0.004006     -0.061502
Li	      6.36557      4.19989      6.38821         0.018122      0.007765      0.099155
Li	      6.33331      8.42197      6.31111        -0.024579     -0.013942     -0.060202
Li	      4.22755      6.32048      6.31501        -0.009035      0.002764     -0.017486
Li	      4.24757      4.23683      8.35408         0.010783     -0.028989     -0.010080
Sc	      2.09619      2.13794      4.14341         0.012183     -0.020940      0.017631
V	      4.27305      2.29514      6.31344         0.068717     -0.012194      0.012410
Cr	      6.32873      6.35001      8.33517         0.017508      0.060114     -0.006149
Fe	      4.22495      4.21325      0.10779        -0.034421     -0.014677     -0.067778
Fe	      2.10176      2.13294      0.09410        -0.073245      0.043218     -0.047156
Fe	      6.33605     10.36119      8.37326         0.073083      0.108688     -0.025155
Fe	      8.44807     10.52127     10.42969        -0.006768      0.037923      0.053199
Fe	      6.37011      4.17694     10.39647         0.021337      0.032568      0.039749
Fe	      2.17804      6.29463      4.11621        -0.051479      0.032207      0.054428
O	      2.13204      2.03057      2.05081        -0.020392     -0.019207      0.090588
O	      4.34317      4.16538      2.04344        -0.073487      0.031623      0.145957
O	      4.21505      1.99894      4.33448         0.010156      0.066540     -0.003648
O	      6.45156      4.21377      4.09034        -0.079738      0.005642      0.095629
O	      6.31825      2.02620      6.30259         0.025979      0.065312      0.013559
O	      8.54573      4.22020      6.25593        -0.073093      0.020629      0.022395
O	      2.04676      4.19059      4.19438         0.044614     -0.099499     -0.041441
O	      4.26769      6.37964      4.22450         0.097654     -0.072696      0.037363
O	      4.31858      4.03127      6.24150        -0.013427      0.094674     -0.019868
O	      6.51111      6.29407      6.32755        -0.040863      0.030068     -0.002779
O	      6.32573      4.33603      8.45118         0.009311      0.002070     -0.082927
O	      8.36891      6.32310      8.30772        -0.023617     -0.036276     -0.159356
O	      2.04576      6.40213      6.28272         0.085900     -0.010486      0.037093
O	      4.12215      8.53770      6.20505         0.097723     -0.111152      0.020678
O	      4.25553      6.32487      8.41351         0.006020     -0.015391     -0.124563
O	      6.35962      8.42377      8.34090         0.035142     -0.177862     -0.041011
O	      6.30420      6.30210     10.40733        -0.045906     -0.004642      0.065352
O	      8.50517      8.48789     10.59596         0.003185     -0.004769     -0.052272
