# total energy = -227.89417584 eV
 
CRYSTAL
PRIMVEC
0.014591 6.363414 6.249774 
6.347081 0.035979 6.228079 
4.260074 4.256083 -0.003758 
PRIMCOORD
36 1
Li	      6.33149      0.22043      6.16882        -0.006698      0.017628      0.029165
Li	      8.26596      2.20409      6.14068        -0.017084      0.014133      0.075855
Li	      6.39486      2.11443      4.32927        -0.050792      0.090324     -0.032850
Li	      6.25567      2.18264      8.17741        -0.008492      0.015675      0.079369
Li	      4.23201      4.27366      4.25080         0.003663     -0.060723     -0.039066
Li	      4.37569      2.16143      6.25303        -0.032572     -0.009112     -0.028215
Li	      4.26946      8.50550      4.21988         0.064929     -0.024787      0.046924
Li	      8.51225      6.49794     10.32455         0.044159      0.060574      0.034633
Li	      4.27710      6.34688      6.19366         0.010961     -0.009145     -0.014342
Sc	      4.22445      8.53077      8.22091        -0.119380      0.135632     -0.017249
Mn	      2.17783      4.26858      6.17118        -0.015177     -0.043789     -0.004741
V	      8.60733     10.55465     10.51570        -0.090762      0.460129      0.126414
V	      2.01780      0.05821      1.99952        -0.104580      0.067089      0.310659
V	      6.22007      6.36153      4.21498         0.102984     -0.113109     -0.022784
Cr	      6.41827      6.34685      8.32685         0.020609      0.027633     -0.066619
Co	      4.27628      4.22156      8.30840        -0.137688      0.129084     -0.136468
Cu	      6.32420      4.16120      6.26634        -0.032039      0.099033      0.023301
Ni	      8.47533      4.34955      8.26115         0.110955     -0.043510      0.069805
O	      2.11487      2.08702      2.17138         0.067447     -0.069773     -0.030133
O	      4.34365      4.23992      2.12491         0.122112     -0.116724     -0.075703
O	      4.04952      1.90686      4.11483         0.035805     -0.160426     -0.003528
O	      6.44029      4.30336      3.98032         0.108632      0.005449     -0.188123
O	      6.33172      2.26050      6.23043        -0.001748     -0.124601     -0.007331
O	      8.56573      4.22389      6.18355         0.049050     -0.011436     -0.348824
O	      2.20650      4.04860      4.21030        -0.011540      0.028828      0.020595
O	      4.45819      6.33614      4.16600        -0.059482     -0.001150      0.039420
O	      4.09596      4.25675      6.29351         0.063578     -0.031721      0.329856
O	      6.35721      6.22456      6.20295         0.019862      0.103906      0.102811
O	      6.43302      4.39508      8.35782        -0.097315      0.008114      0.045348
O	      8.38053      6.38387      8.37822        -0.088157      0.202826      0.059389
O	      2.19230      6.46079      6.47372         0.032781      0.011811     -0.194094
O	      4.50165      8.50000      6.22679        -0.115578     -0.038478      0.018314
O	      4.25216      6.39967      8.38303         0.032756     -0.287088      0.050799
O	      6.33853      8.55496      8.24794         0.154048     -0.094179      0.000874
O	      6.26075      6.45890     10.31418        -0.094373      0.015060     -0.011334
O	      8.50228      8.72224     10.34273         0.039126     -0.253179     -0.242126
