# total energy = -229.50963813 eV
 
CRYSTAL
PRIMVEC
0.026346 6.356473 6.285807 
6.267102 0.030659 6.282374 
4.187964 4.244991 0.010426 
PRIMCOORD
36 1
Li	      6.29654      6.39805     12.53355        -0.026057     -0.004187      0.018053
Li	      2.20751      6.31186      8.38522        -0.005222     -0.005624      0.009751
Li	      6.19408      2.21682      4.21399        -0.058127      0.082041     -0.005867
Li	      4.26448      4.23343      4.35358         0.080878     -0.009922      0.013589
Li	      6.12052      4.23397      6.28790        -0.012780     -0.042530     -0.020582
Li	      2.26961      4.33223      6.31581         0.003548     -0.011702      0.052764
Li	      4.14518      6.17058      6.37637        -0.000339     -0.035912      0.024287
Li	      4.16596      4.32102      8.25764        -0.020071     -0.040004     -0.043660
Li	      6.25371      6.37588      8.35549        -0.000419      0.011198     -0.018359
Sc	      8.26140      2.13144      6.27729        -0.053120      0.008128      0.035330
V	      4.39484      8.41658      8.32279         0.048410      0.048226     -0.161278
V	      8.39877      4.34795      8.32138        -0.013806     -0.226878     -0.060491
V	      6.31588      6.30800      4.36622         0.132435     -0.198044      0.080673
Cr	      4.22782      8.46944      4.24114        -0.226116     -0.223389      0.026457
Fe	      8.28969      6.37495     10.53062         0.102882      0.071279      0.021911
Co	      4.21102      6.37701     10.42372         0.201520     -0.086706      0.087576
Co	      4.21007      2.22330      6.24913         0.021977      0.057873      0.083152
Ni	      4.19380      6.34311      2.09281         0.047156     -0.026837      0.055878
O	      2.14416      2.22350      2.13705         0.076304     -0.013926     -0.016294
O	      3.98877      4.15520      2.10507         0.079131      0.108051     -0.031380
O	      4.09428      2.13275      4.02937         0.066875      0.125915     -0.012425
O	      6.38641      4.42450      4.15167        -0.703110      0.132214      0.080242
O	      6.22147      2.15512      6.34277         0.128369     -0.038480     -0.193283
O	      8.32233      4.34450      6.35356         0.032782      0.003507      0.263177
O	      2.04675      4.22340      4.12206         0.022696      0.093361      0.038916
O	      4.27487      6.42022      4.14072         0.090294     -0.006714      0.206239
O	      4.19837      4.15926      6.31579        -0.019220      0.016644     -0.030126
O	      6.33275      6.42484      6.13630        -0.083201     -0.004217     -0.082461
O	      6.48729      4.22222      8.49960        -0.069210      0.052943     -0.070816
O	      8.41070      6.28270      8.49677        -0.126764      0.005148      0.001859
O	      2.09958      6.40654      6.18238        -0.051296     -0.017799      0.024236
O	      4.14442      8.49391      6.32526        -0.045282      0.029379     -0.054976
O	      4.22031      6.52252      8.38989        -0.004633      0.004207     -0.405043
O	      6.13939      8.55289      8.40407        -0.043959      0.082831     -0.002304
O	      6.28256      6.24770     10.46165         0.476576      0.081218      0.098082
O	      8.46167      8.42051     10.46882        -0.049103     -0.021294     -0.012824
