# total energy = -224.74402325 eV
 
CRYSTAL
PRIMVEC
-0.030177 6.256818 6.315486 
6.342895 -0.013677 6.298998 
4.224926 4.156689 -0.005546 
PRIMCOORD
36 1
Li	      0.10859      6.10628      6.20067         0.088944     -0.006197     -0.027014
Li	      2.20003      8.29142      6.23767        -0.023711      0.043684      0.010011
Li	      2.10146      6.22545      8.29647        -0.025959      0.011049      0.003573
Li	      4.37070      6.10745     10.47278         0.029579      0.047708     -0.017766
Li	      8.35687      4.13010      8.42693        -0.028962     -0.007879      0.048867
Li	      6.32737      4.16690      6.38136        -0.026220     -0.012723     -0.019048
Li	     10.40464      8.48751     10.54679        -0.004773     -0.039634     -0.014877
Li	      8.32151      6.27419     10.64115        -0.008080     -0.002241      0.019501
Li	      6.20816      8.41147      6.37868         0.017757     -0.003042     -0.001944
Sc	      6.45387      8.25766     10.51372         0.042884      0.049389      0.024942
V	      2.09742      2.10509      4.19087         0.032404      0.001085      0.057323
V	      4.21361      4.17987      4.21055        -0.015834     -0.039666      0.034288
V	      8.43148      6.03445      6.33601         0.043924      0.062587     -0.044834
Cr	      6.34740      2.13633      8.36710        -0.041586     -0.021076      0.021023
Fe	      4.02566      6.38016      6.36421         0.150335     -0.145827     -0.145921
Ni	      4.21025      8.33287      8.34724        -0.069715      0.077267      0.068638
Ni	      4.21736      4.19846      8.44604        -0.030520     -0.026002     -0.115448
Ni	      6.32569      6.19964      8.43429         0.076687     -0.039332     -0.053943
O	      2.03589      2.09457      2.23913        -0.048555     -0.003941     -0.012363
O	      4.20103      4.20012      2.33123        -0.037256      0.092011      0.017157
O	      4.15767      2.13715      4.23173         0.015723     -0.014644      0.098063
O	      6.22486      4.29455      4.21892        -0.015005     -0.019696      0.005732
O	      6.18980      2.09160      6.36992        -0.009505     -0.008916     -0.038709
O	      8.42978      4.31331      6.27470        -0.012571     -0.172156     -0.000111
O	      2.21184      3.95690      4.21194        -0.008203      0.057826      0.003149
O	      4.31733      6.17802      4.18382        -0.025292      0.057891     -0.015826
O	      4.21253      4.12459      6.10190         0.018789      0.052264      0.016571
O	      6.42447      6.22740      6.22278        -0.025247     -0.007990     -0.046804
O	      6.27625      4.10911      8.38878         0.115333     -0.106194      0.026626
O	      8.50378      6.28297      8.25693         0.044984     -0.128903      0.023666
O	      2.17413      6.24343      6.30370        -0.180417      0.006184     -0.018916
O	      4.18803      8.29277      6.35336         0.037600      0.058199     -0.173893
O	      4.26903      6.24617      8.31269        -0.075009      0.017938      0.098188
O	      6.30418      8.28808      8.44745         0.022292      0.128834      0.025308
O	      6.34512      6.26775     10.48030         0.001164      0.057987      0.077644
O	      8.40475      8.34491     10.49282        -0.025979     -0.015844      0.067145
