# total energy = -228.37079055 eV
 
CRYSTAL
PRIMVEC
-0.010200 6.350277 6.215025 
6.226697 -0.009276 6.214117 
4.161092 4.242846 -0.016077 
PRIMCOORD
36 1
Li	      2.08771      2.12559      0.00791         0.079667     -0.042471      0.038440
Li	      4.11978      2.17377      2.08374        -0.044345      0.055318     -0.006480
Li	      8.27682      4.25370      4.18528        -0.000443      0.057550     -0.013871
Li	      4.15854      6.36109      2.07837         0.065168     -0.040828      0.043233
Li	      2.08847      4.23477      2.06164        -0.010877      0.020858      0.018583
Li	      4.14964      4.21737      4.15621         0.038865     -0.013988      0.013213
Li	      2.13264      4.26802      6.18586         0.032173      0.022379     -0.011333
Li	      4.10449      6.28021      6.16502        -0.048866     -0.109467      0.008838
Li	      8.30013      8.43178      8.26041         0.019800     -0.023330     -0.022345
Sc	      6.18346      6.42418      8.22193        -0.022134     -0.026636     -0.076227
V	      4.14464      4.22444      0.03560        -0.028188     -0.078222      0.078167
V	      2.15655      6.37363      8.31148         0.046741      0.136322      0.035204
V	      6.21290      4.17238      6.22856         0.268161      0.006881     -0.078742
Cr	     10.35544      8.44049     10.30687         0.027533     -0.035971      0.009528
Fe	      2.17503      2.19391      4.13702        -0.321461     -0.005716      0.019785
Fe	      2.16958      6.34748      4.09629        -0.063226     -0.250470      0.040344
Cu	      6.20528      2.13345      4.11429         0.062414      0.046603      0.015293
Cu	      8.31863      6.37615      6.23131        -0.004620     -0.079193     -0.081086
O	      2.07902      1.97907      2.15048         0.028722     -0.025155     -0.062792
O	      4.31995      4.25447      1.94377         0.026644      0.013759     -0.067401
O	      4.12037      2.14931      4.16892         0.301486     -0.015844     -0.042418
O	      6.24624      4.38709      4.12016        -0.030133     -0.062839     -0.045215
O	      6.33068      1.96171      6.08176         0.008766      0.027989      0.188026
O	      8.30859      4.31865      6.23175         0.224767      0.043603     -0.051479
O	      2.00717      4.22242      4.14050        -0.038242      0.146798      0.019920
O	      4.13087      6.44675      4.15425         0.071671      0.012595      0.001850
O	      4.29684      4.08304      6.21186        -0.426236      0.088929     -0.018744
O	      6.08659      6.29201      6.18199        -0.101654     -0.053036      0.090450
O	      6.21890      4.27901      8.25401         0.000218      0.034842      0.079629
O	      8.25082      6.33562      8.34243        -0.096019     -0.020418     -0.027424
O	      1.99761      6.31606      6.26853        -0.032299      0.020574     -0.041805
O	      4.10084      8.73057      6.10357         0.004007      0.020076      0.034978
O	      3.99287      6.33783      8.26157        -0.032887     -0.011581      0.019707
O	      6.18698      8.54554      8.36028         0.031650     -0.037742     -0.201322
O	      6.25545      6.20692     10.36711        -0.049040     -0.076292      0.061815
O	      8.33571      8.31307     10.34206         0.012218      0.254125      0.031682
