# total energy = -228.74963786 eV
 
CRYSTAL
PRIMVEC
0.002508 6.394327 6.319193 
6.314367 0.014103 6.307365 
4.211989 4.257396 0.007020 
PRIMCOORD
36 1
Li	      8.29363      2.29919      6.28683         0.023095      0.011238      0.015141
Li	      8.29057      4.22903      4.34386        -0.021817     -0.014475     -0.036624
Li	      6.35402      2.25797      4.37076         0.008081      0.048887      0.031821
Li	      8.33834      4.23860      8.30834        -0.045557     -0.023266     -0.012561
Li	      6.34691      6.28499      4.26858        -0.004618     -0.036056      0.028827
Li	      4.30765      4.24312      4.29307         0.024661     -0.024587      0.062582
Li	      8.42695      6.32380      6.30680        -0.067226      0.013940      0.039598
Li	      6.44180      4.20877      6.20876        -0.037962      0.042612      0.029802
Li	      6.32101      6.32619      8.37524        -0.039205     -0.042510     -0.075224
Sc	      6.30843      4.28409      2.25088         0.044513     -0.024309     -0.000812
V	      4.17383      2.13512      2.27676         0.064879     -0.051620     -0.440226
V	      8.40144      6.41619     10.43519        -0.019588      0.001294     -0.108159
V	      4.27267      6.36030      6.28882         0.154631      0.077555     -0.015268
Cr	      6.30275      4.29074     10.49585         0.010603     -0.004392      0.035040
Fe	     10.30977      4.41339      6.29630         0.248668     -0.102223      0.008302
Fe	      2.17696      4.17096      6.28900        -0.122141     -0.073981      0.029220
Ni	      6.36090      2.21561      8.37578         0.077188     -0.052127      0.008317
Ni	      4.24963      4.27394      8.43114        -0.113467      0.091621     -0.043188
O	      2.21671      2.10696      2.07882        -0.054259      0.009255      0.002509
O	      4.22715      4.15049      1.99104        -0.068728      0.001423      0.051185
O	      4.24048      2.15375      3.98761         0.002829      0.020513      0.486060
O	      6.29959      4.25395      4.17909        -0.003381      0.008082     -0.006007
O	      6.31222      2.05862      6.37647        -0.036522      0.087317     -0.123973
O	      8.46885      4.29453      6.27639        -0.287225     -0.013716      0.004925
O	      2.01759      4.39479      4.28308         0.084278      0.078983     -0.079627
O	      4.13256      6.48237      4.19389         0.046479      0.008189      0.109021
O	      4.13252      4.35835      6.37506         0.151585     -0.036086     -0.130104
O	      6.24369      6.48482      6.28347         0.135552     -0.048506      0.002544
O	      6.27505      4.24927      8.52386         0.134703      0.070273      0.058197
O	      8.45723      6.42292      8.60438        -0.086888     -0.046458      0.106644
O	      2.20413      6.33945      6.18773        -0.167907     -0.021830     -0.009996
O	      4.27678      8.47066      6.32391        -0.023955      0.055564     -0.074274
O	      4.19984      6.49191      8.37150         0.039601      0.042400     -0.037823
O	      6.23375      8.55653      8.31509         0.048229      0.024411      0.016360
O	      6.44835      6.31427     10.61855        -0.032217     -0.023001     -0.049783
O	      8.49734      8.41728     10.50054        -0.066914     -0.054412      0.117554
