# total energy = -92.55540555 eV
 
CRYSTAL
PRIMVEC
2.144150 4.290843 2.088046 
4.212183 -2.113442 -2.075678 
0.008056 4.305531 -4.213340 
PRIMCOORD
16 1
Li	      2.14273      2.24992     -0.04382         0.040948      0.056034     -0.106539
Li	      4.31002      2.24915     -2.20002        -0.150872      0.270652     -0.075742
Li	      0.04114      2.22759     -2.17182         0.116682      0.131525     -0.132673
Li	      2.15207      4.38255     -2.08253         0.143608     -0.018149      0.036827
Mn	      0.01680      0.10458     -0.10730         1.462182     -0.759028      1.158239
Mn	      2.19860      0.15514     -2.14755        -0.766070     -0.154741     -1.085325
Ni	      2.21110      2.29831     -4.20954        -0.154394     -0.680694      0.229422
Ni	      4.36279      4.43056     -4.25892        -0.059787     -0.464193      0.538785
O	      4.29317      4.43207     -2.07146        -0.218275      0.077421      0.498297
O	      4.35212      2.30720     -4.41904        -0.244041      0.616143      0.127360
O	      4.49749      2.27796     -0.00127        -0.637746      0.448869     -0.408655
O	      4.19590     -0.09346     -2.10772        -0.670714      1.074031     -0.007541
O	      2.32790      4.38819      0.08819         0.383788     -0.129679     -0.768774
O	      2.19831      2.01129     -2.15393         0.391954      0.099163     -0.053792
O	      2.17499      6.81578     -2.17822         0.240531     -0.488720     -0.226905
O	      2.10086      4.40783     -4.42090         0.122206     -0.078633      0.277016
