# total energy = -233.95794996 eV
 
CRYSTAL
PRIMVEC
0.014316 6.212872 6.192809 
6.405892 0.003308 6.203523 
4.283889 4.162675 -0.011256 
PRIMCOORD
36 1
Li	      6.38805      6.22209     12.25775        -0.028159      0.006322      0.048997
Li	      6.49060      4.13209      2.18187         0.041956      0.023278      0.021234
Li	      4.37440      6.28105     10.32623         0.012974     -0.000165      0.012956
Li	      6.46977      6.17099      4.14048        -0.012137     -0.009431     -0.001786
Li	      4.34893      4.07639      4.14130        -0.003786      0.007486      0.009247
Li	      4.26817      2.02961      6.11326        -0.000356     -0.006363     -0.029116
Li	      6.46382      4.31765     10.34253         0.025171      0.045423      0.014149
Li	      8.38011      6.22822     10.32459        -0.012118      0.005824      0.019477
Li	      6.41442      6.22772      8.39359        -0.028740      0.019543     -0.041589
Sc	      4.30689      6.16591      2.18983         0.014419     -0.068871      0.029488
V	      8.56590      8.28150     12.30313         0.118237     -0.056922      0.019340
V	      2.15114      4.13962      6.09641        -0.029560      0.015743     -0.003864
V	      4.30386      6.22425      6.10741        -0.040818      0.078313      0.004237
Cr	      6.41145      4.16438      6.13017        -0.005669      0.043323     -0.011352
Fe	      4.30243      2.07887      2.14825         0.009135     -0.052012     -0.181058
Fe	      2.13900      4.23135      2.16779        -0.068113     -0.063410     -0.076790
Fe	      8.53126      8.33893      8.33015         0.001458     -0.062188      0.045847
Co	      6.37886      2.05752      4.12510        -0.003922     -0.037674      0.049769
O	      2.18838      2.10828      1.99607        -0.044935     -0.004124      0.093895
O	      4.15353      4.10852      2.03467         0.039524      0.056591     -0.005561
O	      4.41782      2.05994      4.05089         0.013193      0.016867      0.158773
O	      6.40299      4.03129      4.18642         0.000069     -0.109619     -0.013081
O	      6.46898      2.14119      6.13417         0.028957     -0.032738      0.033644
O	      8.40410      4.07279      6.29948        -0.053737      0.040211     -0.025003
O	      2.12080      4.14856      4.12405        -0.026201      0.011899      0.068673
O	      4.32525      6.22468      4.14771         0.038001     -0.009064     -0.048925
O	      4.29660      4.14253      6.28596         0.049335     -0.025386     -0.069120
O	      6.33445      6.25001      6.14886         0.013239     -0.082681      0.000757
O	      6.38363      4.13281      8.21604         0.018470      0.030818      0.001715
O	      8.62608      6.24088      8.25280         0.002253      0.038260      0.004124
O	      2.27650      6.21619      6.17804        -0.049036     -0.048609      0.005876
O	      4.30947      8.29761      6.24063        -0.048570      0.037289     -0.037429
O	      4.28020      6.19842      8.16310         0.021328      0.057212      0.025804
O	      6.44485      8.31199      8.20999        -0.003354     -0.002655     -0.034411
O	      6.39826      6.36928     10.33485         0.004378      0.130913      0.000732
O	      8.41672      8.31822     10.31692         0.007113      0.006597     -0.089648
