# total energy = -230.35177142 eV
 
CRYSTAL
PRIMVEC
0.013787 6.233951 6.299664 
6.298127 0.037283 6.275879 
4.212689 4.153910 0.011125 
PRIMCOORD
36 1
Li	      8.31561      2.24694      6.32447        -0.028191      0.053160     -0.011989
Li	      6.20117      2.20405      4.30254        -0.081253     -0.111536      0.050341
Li	      8.41634      4.19573      8.24391        -0.021201     -0.008433     -0.002149
Li	      6.39915      6.20712      4.28805         0.106897     -0.005234      0.022411
Li	      4.30049      4.00584      4.37016        -0.134454     -0.101633      0.031385
Li	      8.33592      6.30626      6.40687        -0.028286     -0.022699     -0.061024
Li	      6.31527      4.22355      6.18660         0.060144      0.029332      0.014195
Li	      4.20404      4.09723      8.22346         0.034712      0.001190      0.007804
Li	      6.35615      6.31910      8.21533         0.033076     -0.016267      0.036010
Sc	      8.41274      6.31721     10.46161         0.196512      0.100569     -0.114475
Ti	      6.34574      4.19814     10.35850        -0.044855     -0.166846     -0.446457
Cr	     10.44701      4.20997      6.29202         0.139903      0.100632      0.117891
Cr	      6.32409      4.14622      2.14598        -0.126276     -0.072067     -0.073542
Cr	      0.03820      2.07172      2.06619         0.022331      0.098697      0.004965
Co	      4.18552      2.07362      2.10703         0.016649     -0.091853      0.246437
Co	      8.33507      4.22535      4.20082         0.102996     -0.338859     -0.119290
Co	      6.30890      8.28116      6.34094         0.105967     -0.031923     -0.022258
Ni	      4.29617      6.17249      6.33153        -0.047925     -0.025610      0.003431
O	      2.14217      2.00819      2.08254        -0.035242     -0.082577     -0.017242
O	      4.26823      4.12053      2.03239         0.008914      0.005439     -0.001903
O	      4.22793      1.94057      3.99919        -0.248295      0.136970     -0.097763
O	      6.30963      4.11465      4.10694         1.206847      0.237452      0.185670
O	      6.32468      2.02372      6.39288         0.012347     -0.029442     -0.077701
O	      8.50023      4.23004      6.14791        -0.251292     -0.047276     -0.475013
O	      1.98349      4.19099      4.34301        -0.156929      0.090230      0.064932
O	      4.20193      6.35744      4.18119        -0.022644      0.120188     -0.066555
O	      4.03008      4.21100      6.30155        -0.119066     -0.172309     -0.012507
O	      6.26498      6.36760      6.30837         0.135939      0.054146     -0.003611
O	      6.37256      4.12574      8.49027         0.029683      0.019856      0.425605
O	      8.55549      6.24243      8.46318         0.001469     -0.004652      0.041408
O	      2.06775      6.14163      6.35322        -0.060208     -0.020783      0.102725
O	      4.30338      8.32525      6.35536         0.003674      0.118270     -0.049506
O	      4.13648      6.37912      8.45046        -0.054374      0.017256      0.407346
O	      6.15996      8.35636      8.28160         0.007417      0.039311     -0.042747
O	      6.34733      6.18779     10.54385        -0.762347      0.153365     -0.049860
O	      8.58287      8.43139     10.52950        -0.002639     -0.026064     -0.016963
