# total energy = -229.08873111 eV
 
CRYSTAL
PRIMVEC
0.054484 6.189228 6.372799 
6.307903 0.042227 6.384796 
4.226466 4.155253 0.007132 
PRIMCOORD
36 1
Li	      2.28254      8.20369      6.44507         0.060170      0.019790      0.025962
Li	      6.46460     10.23833      8.52435         0.070839      0.033480      0.000953
Li	      6.34544      8.31290     10.39495         0.027666     -0.016182      0.000825
Li	      2.12577      2.11404      4.29109         0.009265      0.036250     -0.006772
Li	      6.38072      4.15160     10.56611        -0.003706     -0.037596      0.020908
Li	      6.34474      8.22527      6.48254        -0.031254      0.032183     -0.018501
Li	      4.28230      6.32908      6.45037         0.044146      0.006567      0.021613
Li	      8.27957      8.38912      8.49366        -0.072287      0.088784     -0.047181
Li	      6.29275      6.34838      8.43027        -0.077139      0.015345     -0.038159
Sc	      6.31981      4.17927      6.42729        -0.106993      0.140560     -0.104423
Ti	      8.41299      6.36401     10.67392         0.010903      0.172769      0.270289
Cr	      4.30922     10.30025      6.39067         0.053567     -0.142950     -0.080326
Cr	      4.26113      6.19538     10.55041        -0.000909     -0.090713     -0.120563
Cr	      8.39394      6.24930      6.43427        -0.209545      0.146194      0.026913
Fe	      4.25483      4.14289      4.23338         0.050453     -0.087322      0.178765
Co	      2.08857      4.09447      2.20091         0.053285      0.077044      0.159653
Cu	      4.36332      8.23302      8.41838        -0.083046      0.089295      0.052171
Cu	      4.28519      6.21490      2.17907         0.082700     -0.018060      0.067807
O	      6.28724      8.29691      8.46766        -0.028715      0.069268      0.060796
O	      2.30366      2.26973      2.13797        -0.024761      0.051207     -0.007333
O	      4.23390      4.18432      2.14085        -0.237038      0.092052     -0.126177
O	      4.24372      2.07592      4.39226         0.005332     -0.027254      0.097074
O	      6.35981      4.15152      4.29473        -0.023786      0.017434      0.027063
O	      6.21306      2.02111      6.54759         0.042741     -0.054170     -0.058495
O	      8.49002      4.21190      6.30707         0.006330     -0.018245     -0.062389
O	      2.23635      4.25878      4.19966         0.010631      0.091874     -0.047098
O	      4.11321      6.16107      4.19104        -0.013892      0.031245      0.020387
O	      4.25855      4.09789      6.27811         0.084419     -0.113520      0.110727
O	      6.41582      6.19423      6.37324         0.092703     -0.158382      0.020224
O	      6.40548      4.05987      8.50315         0.336149     -0.059341      0.011170
O	      8.30536      6.05870      8.53327        -0.092045     -0.004040     -0.126652
O	      2.06988      6.24759      6.18343        -0.009449      0.058575     -0.230695
O	      4.28599      8.36761      6.44022        -0.057942      0.073998     -0.137490
O	      4.25298      6.27410      8.61115        -0.037903     -0.208781      0.094967
O	      6.36695      6.22623     10.75999         0.067964     -0.038322     -0.027379
O	      8.46519      8.27566     10.56126         0.001147     -0.269031     -0.028637
