# total energy = -226.39391382 eV
 
CRYSTAL
PRIMVEC
-0.026313 6.276395 6.334333 
6.224319 -0.015137 6.323030 
4.144288 4.171442 -0.004828 
PRIMCOORD
36 1
Li	      4.10762      2.07351      2.12581        -0.003512     -0.013329      0.051025
Li	      4.11335      6.24712     10.49542         0.013670     -0.010358     -0.025118
Li	      4.14689      6.24278      2.22554         0.021232      0.026374      0.044572
Li	      2.04666      4.20568      2.18143        -0.022499     -0.026397      0.064450
Li	      4.08574      4.21997      4.21050         0.002734     -0.013559      0.130469
Li	      4.12845      8.31526      4.21510        -0.069571      0.013508     -0.088385
Li	      2.15205      6.23057      4.15993         0.013912      0.034063     -0.014321
Li	      2.06534      4.24135      6.26361         0.082297     -0.033197     -0.036792
Li	      4.08785      6.22262      6.30659        -0.006555     -0.094939     -0.027250
Sc	      4.15600      2.08437      6.32186        -0.080095      0.098862      0.071904
Ti	      6.07005      6.36093      4.19763        -0.214629      0.307338     -0.246945
Cr	      4.14456     10.34961      6.32032        -0.022788     -0.052416      0.150883
Cr	      4.14030      4.18655      8.44265        -0.007334     -0.004642     -0.031916
Cr	      6.16420      6.25435      8.46714        -0.052606      0.006667      0.032464
Fe	      6.19953      8.40559     10.49729        -0.078257      0.019643     -0.024950
Cu	      2.08344      8.36284      6.29910         0.086329     -0.077500     -0.111352
Cu	      2.09041      0.02314      2.10479         0.046295     -0.153870      0.054424
Ni	      6.22856      4.15087      6.35926         0.035070      0.013289     -0.052629
O	      1.98685      6.34123      6.43191        -0.029422     -0.014259     -0.237510
O	      2.09544      1.97046      2.29892        -0.022418      0.340105      0.105635
O	      4.25079      4.20349      1.86539        -0.193018      0.008532     -0.151756
O	      4.16730      2.09338      4.27549        -0.117850     -0.039762     -0.011267
O	      6.20732      4.16761      4.19581         0.002313      0.039584      0.085120
O	      6.29186      2.01180      6.24935        -0.046144     -0.154165      0.066655
O	      8.36637      4.09137      6.38711         0.138040      0.079993     -0.021325
O	      2.08065      4.02173      4.20070        -0.049851     -0.242529      0.068040
O	      4.23393      6.25181      4.24813         0.244009      0.010369      0.006029
O	      4.19110      4.12373      6.42418        -0.180451     -0.035605      0.005325
O	      6.22598      6.20989      6.34139         0.003889      0.145075      0.030600
O	      6.13924      4.27499      8.41173         0.021409     -0.050242      0.109008
O	      8.18088      6.30874      8.42829         0.035666      0.038479     -0.018067
O	      4.05932      8.52735      6.27296         0.103900      0.060703      0.005507
O	      4.14100      6.20777      8.41291         0.074450     -0.033642     -0.040405
O	      6.21975      8.33910      8.46400         0.008594     -0.182780     -0.055440
O	      6.18708      6.35039     10.59774         0.021409     -0.050777      0.035167
O	      8.15400      8.35272     10.41331         0.241782      0.041385      0.078153
