# total energy = -233.83444541 eV
 
CRYSTAL
PRIMVEC
0.026144 6.268774 6.240658 
6.282842 0.006921 6.259745 
4.186809 4.190231 0.006341 
PRIMCOORD
36 1
Li	      0.17801      6.21132      6.21809         0.003665     -0.004024      0.014470
Li	      2.10258      8.29314      6.25729         0.006242     -0.026620     -0.011659
Li	      6.33567      8.32795     10.43215         0.057406     -0.001701      0.028073
Li	      2.10557      4.21026      2.25576         0.001458      0.052806     -0.082067
Li	      2.14119      2.26118      4.10121        -0.034582     -0.016575      0.033799
Li	      3.99385      4.15131      4.15133        -0.041873      0.023522      0.005588
Li	      2.05353      6.14681      4.17894         0.025577      0.056784     -0.007031
Li	      2.01983      4.27565      6.09780        -0.012455     -0.005472      0.060061
Li	      8.38394      8.30188      8.37866        -0.003784      0.012165      0.015517
Sc	      4.16443      6.25225      6.10363        -0.042209     -0.025734     -0.093252
Ti	      8.36174      4.08852      4.28177        -0.036833     -0.402913      0.168982
Cr	      6.29705     10.42284      8.35323        -0.010007     -0.036605      0.047222
Cr	      4.21138      2.15094      6.19689         0.034619      0.031634      0.035045
Cr	      6.35230      6.28464      8.35359         0.048131      0.007019     -0.010197
Fe	      4.14953      2.19395      2.08411        -0.084900      0.028756      0.020113
Fe	      4.19530      6.31241      2.13498        -0.024726     -0.043500     -0.057146
Co	      6.30419      4.18229      6.23849        -0.054061     -0.019517      0.008534
Ni	      0.09879      4.21730      4.21820        -0.165717     -0.033006     -0.023344
O	      2.07585      1.97468      2.09768         0.059460     -0.009222     -0.000998
O	      4.27939      4.20674      2.09653         0.004403      0.001558      0.011539
O	      4.19473      2.00302      4.15806        -0.003200     -0.040149      0.015129
O	      6.41669      4.15403      4.21000         0.169075     -0.003604     -0.049229
O	      6.21344      2.23944      6.34909         0.034301      0.050646     -0.063216
O	      8.29572      4.29480      6.18886        -0.004958     -0.015098     -0.165043
O	      2.06049      4.19339      4.17835         0.145111     -0.008902     -0.012955
O	      4.15200      6.34911      4.08083        -0.002736     -0.164733      0.119208
O	      4.37606      4.15058      6.20946         0.041430      0.008592     -0.014625
O	      6.35056      6.15599      6.32595        -0.002688     -0.036008     -0.000635
O	      6.31491      4.21299      8.19717         0.011805      0.079008     -0.037389
O	      8.36574      6.31202      8.22517        -0.015468     -0.005836     -0.032268
O	      2.16751      6.23692      6.37790         0.001495      0.015422      0.018200
O	      4.18561      8.32188      6.34348         0.004511     -0.009861      0.029173
O	      4.22053      6.32608      8.37890         0.022986     -0.011465      0.023198
O	      6.20367      8.34060      8.34787         0.073452      0.006129      0.003160
O	      6.22504      6.27759     10.35024        -0.095837      0.147831     -0.025246
O	      8.46176      8.50506     10.42801        -0.109094      0.398672      0.029286
