# total energy = -227.35170507 eV
 
CRYSTAL
PRIMVEC
-0.031674 6.305224 6.361113 
6.345677 -0.075099 6.404354 
4.177403 4.178228 0.003510 
PRIMCOORD
36 1
Li	      4.32208     10.32429      6.40853         0.091155     -0.141898     -0.022159
Li	      2.19755      8.23429      6.40081         0.073952     -0.058635      0.023903
Li	      1.99334      6.30073      8.30094         0.070335     -0.058322     -0.141851
Li	      4.23444      8.38146      8.31833         0.082392     -0.044189     -0.071551
Li	      6.35035      8.32931     10.53537        -0.017651     -0.032862     -0.071488
Li	      4.17248      4.25777      4.17753         0.035370      0.005228      0.034102
Li	      4.16520      8.35113      4.48435        -0.020919      0.061504      0.045939
Li	      1.93860      4.33293      6.32603        -0.106082      0.075504      0.026183
Li	      4.03815      6.41190      6.35411        -0.055829      0.062907      0.035278
Sc	      2.18238      4.10349      2.23817        -0.296297      0.178453      0.071345
Ti	      4.26053      2.11765      6.25900         0.021843      0.083794     -0.165847
Mn	      6.29994      4.14831      6.37332        -0.014788      0.200689     -0.129498
Cr	      8.40604     10.37090     10.65053         0.097074     -0.106542      0.070146
Cr	      8.33728      8.34287      8.54998        -0.012136      0.020769     -0.070177
Cr	      6.24873      6.30320      8.54203        -0.079051     -0.094147     -0.088669
Cu	      4.27047      6.16643      2.20238        -0.118734     -0.056223     -0.164027
Ni	      6.19678      6.28728      4.26428         0.075888     -0.007428      0.205467
Ni	      2.08141      6.30117      4.36991        -0.177917      0.031586     -0.066124
O	      2.08602      6.30361      6.31916        -0.011050     -0.003008      0.145605
O	      4.14942      8.35310      6.39846        -0.001179      0.004778     -0.008769
O	      2.10180      2.10940      2.20041        -0.125987     -0.314138     -0.137556
O	      4.14956      4.18378      2.11242         0.259528      0.170693     -0.053030
O	      4.18935      1.98024      4.42408         0.081997     -0.007047      0.337165
O	      6.39461      4.17963      4.48021        -0.093570     -0.096275      0.114851
O	      6.18014      2.19704      6.49021        -0.052397     -0.001354      0.004233
O	      8.27166      4.23476      6.38245        -0.050112      0.058033     -0.033902
O	      2.08494      4.18719      4.22763         0.056988     -0.032768     -0.021563
O	      4.15391      6.27196      4.11453         0.121217      0.043013      0.078280
O	      4.33728      4.06674      6.44041         0.113866     -0.180943     -0.030612
O	      6.37685      6.11344      6.43408         0.090786     -0.074871      0.025977
O	      6.25543      4.22577      8.32124         0.024834     -0.097171      0.070503
O	      8.28575      6.26833      8.43756         0.121391      0.053783     -0.073632
O	      4.26038      6.15181      8.64968        -0.036800      0.079200      0.012927
O	      6.38395      8.24359      8.48867         0.015481      0.148995     -0.019736
O	      6.24263      6.24808     10.51883        -0.136456      0.057959      0.067804
O	      8.37994      8.37506     10.52151        -0.027141      0.070935      0.000484
