# total energy = -241.00999141 eV
 
CRYSTAL
PRIMVEC
0.023277 6.034388 6.422800 
6.395240 -0.007399 6.453796 
4.263650 4.044763 -0.005171 
PRIMCOORD
36 1
Li	      4.19120      3.99179      0.04296         0.006901     -0.012552      0.006689
Li	      2.25373      8.10923      6.38056        -0.005210      0.003552      0.031516
Li	      6.30083      3.98578      2.21069         0.026615      0.017779      0.000552
Li	      2.16399      4.03453      2.11719         0.000827     -0.011826      0.002865
Li	      4.31921      4.06514      4.27507        -0.018221     -0.046564     -0.013906
Li	      6.39762      4.03838      6.38116        -0.002047     -0.028337     -0.002195
Li	     10.64811      8.05514     10.71455        -0.000075      0.048271     -0.041315
Li	      6.40151      8.06576      6.50992        -0.007946      0.031811      0.022083
Li	      4.27367      4.01947      8.55571        -0.036652      0.060616     -0.023622
Sc	      6.43554      2.02232      8.49298         0.028001     -0.054740     -0.067925
Ti	      2.11708      5.96217      4.47135         0.003460     -0.136939      0.285773
Mn	      8.57358     10.00170     10.75939        -0.022978      0.018677     -0.062933
Mn	      2.09491      2.05437      4.27328         0.004055     -0.028229      0.000937
Mn	      4.27917      5.97966      6.46014        -0.003603      0.060443      0.031674
Mn	      6.46395      5.98527      8.59291        -0.090394      0.122660     -0.003693
Cr	      4.26915      2.06780      2.15737         0.024363     -0.078383      0.080808
Cr	      4.28158      2.05804      6.39436        -0.088421      0.042982     -0.059911
Ni	      6.42279      2.07842      4.34856        -0.005272      0.032585     -0.023876
O	      2.18066      2.03692      2.29053        -0.026421     -0.002951     -0.046487
O	      4.28050      4.01854      2.08545        -0.027981      0.089561      0.010099
O	      4.33638      1.99108      4.30963        -0.085305      0.027722      0.012903
O	      6.42663      4.15193      4.24596        -0.066552      0.076858      0.019313
O	      6.26280      2.04428      6.43260         0.003550     -0.014698      0.124771
O	      8.55093      4.10612      6.22163        -0.075104     -0.057487      0.097276
O	      2.10616      4.06696      4.29144        -0.002342      0.153407     -0.012463
O	      4.09238      6.07678      4.18585        -0.062643     -0.009689     -0.016581
O	      4.23796      4.07296      6.44539         0.008361     -0.050856     -0.026588
O	      6.35116      6.06961      6.27361         0.098239     -0.013414      0.023393
O	      6.44620      4.09614      8.54806        -0.014468     -0.059754      0.028793
O	      8.46617      6.04668      8.44221         0.095615      0.010541      0.028715
O	      2.27055      6.02114      6.33528        -0.026369      0.004987     -0.329576
O	      4.25203      7.89133      6.62820         0.071845      0.021916     -0.045204
O	      4.45077      6.04255      8.74601        -0.054716     -0.032295      0.054906
O	      6.31531      7.94767      8.65767         0.015742     -0.005878     -0.083976
O	      6.57584      6.03066     10.77581         0.201603     -0.113944     -0.008927
O	      8.50226      8.00060     10.75299         0.133543     -0.065835      0.006112
