# total energy = -245.08050794 eV
 
CRYSTAL
PRIMVEC
-0.017206 6.311425 6.339558 
6.278351 -0.012639 6.334990 
4.181489 4.200485 -0.004313 
PRIMCOORD
36 1
Li	      8.37724      8.42152     12.66190        -0.011021      0.009662     -0.043295
Li	      2.16898      6.28684      8.41542        -0.012790     -0.005037     -0.091940
Li	      4.12777      0.02903      4.17739        -0.035509      0.001459     -0.035581
Li	      6.23893      2.12420      4.19880        -0.017557      0.001067      0.024591
Li	      2.15718      2.05287      4.20574         0.054858     -0.042116     -0.009028
Li	      8.37436      6.26793      6.33065         0.019790      0.034933      0.034788
Li	      6.21727      8.39153      6.40530        -0.008963     -0.000728     -0.045229
Li	      4.15705      6.31749      6.39797        -0.065008      0.006309     -0.030244
Li	      6.21670      6.32345      8.43449        -0.044494     -0.017023      0.036223
Sc	      4.18688      4.14849      4.25609         0.050878     -0.025898      0.024300
Ti	      6.30678      0.06487      6.32313         0.152367      0.042930     -0.069341
Mn	      0.11975      2.11035      2.08845         0.048649      0.027547      0.039771
V	      4.18901      8.31010      8.45042         0.062079     -0.037213     -0.039585
V	      6.32455      4.38248      6.30775        -0.047137      0.008550      0.031999
V	      8.31345      6.33863     10.56853         0.022522     -0.032027      0.019421
V	      8.21474      8.45348      8.42511         0.017388     -0.016306     -0.030524
Cr	      4.15039      8.39452      4.26383         0.005599      0.004004     -0.010658
Cu	      8.35745      4.19617      8.41313         0.071849      0.068349      0.050909
O	      2.29508      2.14028      2.08684        -0.097215     -0.010263      0.005555
O	      4.34040      4.12869      2.04217         0.114526     -0.065704     -0.030263
O	      4.18627      2.13093      4.07756        -0.002447     -0.025085      0.090227
O	      6.25056      4.16427      4.40856         0.037613      0.054875      0.025955
O	      6.26383      1.98770      6.33114        -0.033392     -0.101611     -0.044926
O	      8.32129      4.19476      6.39216         0.092688     -0.026612     -0.068023
O	      2.01655      4.29070      4.20576        -0.013430     -0.086899      0.030798
O	      4.14465      6.35557      4.24136         0.065641     -0.010051      0.049326
O	      4.30343      4.16161      6.32675        -0.026623      0.035368     -0.020540
O	      6.32003      6.12000      6.34655        -0.044704      0.091473     -0.022302
O	      6.09217      4.21898      8.45546        -0.061616      0.097375      0.020953
O	      8.33406      6.39029      8.56277        -0.037475     -0.023325     -0.077778
O	      1.92446      6.32969      6.23889        -0.152052     -0.023646      0.044510
O	      4.16325      8.52212      6.31199         0.004578     -0.011814     -0.038083
O	      4.12172      6.26152      8.40923         0.060914     -0.046045      0.031103
O	      6.20842      8.34289      8.40369        -0.013249      0.035582      0.024223
O	      6.23557      6.19529     10.70457        -0.076550      0.008545      0.116490
O	      8.43475      8.32475     10.53177        -0.080706      0.079374      0.006197
