# total energy = -244.46918582 eV
 
CRYSTAL
PRIMVEC
-0.008888 6.241570 6.401996 
6.440011 -0.019872 6.413118 
4.289560 4.164678 -0.009608 
PRIMCOORD
36 1
Li	      8.48457      2.18159      6.47132         0.001330     -0.012259      0.009207
Li	      4.25931      2.10840      2.24426         0.008829     -0.072816      0.029436
Li	      8.45744      4.13968      4.36384        -0.005563     -0.034606      0.003164
Li	      6.43341      2.17813      4.28056        -0.017840      0.014088      0.019325
Li	      0.13664      2.08584      2.03950         0.028053     -0.001980      0.024621
Li	      2.14299      4.04722      2.05963        -0.005531     -0.029300      0.014652
Li	      4.36151      4.11069      4.19403         0.043864      0.023549      0.003689
Li	      6.51540      4.06473      6.41321        -0.001441     -0.015468      0.032521
Li	      4.30550      4.20465      8.54781         0.008509      0.083447      0.000164
Sc	      4.36679      2.06633      6.40397         0.142372     -0.018434     -0.038916
Ti	      8.59818      6.30575     10.55962         0.236947      0.314616     -0.225099
Mn	      6.45363      8.31027      6.42792         0.068992      0.015755      0.029014
V	      4.25958      4.17525      0.03643         0.007625      0.007288      0.089384
V	      6.41694      4.11913     10.62674        -0.136780      0.014702     -0.194665
V	      4.27259      6.18754      6.41527         0.057872     -0.111715     -0.304832
V	      6.35477      6.26254      8.58781        -0.413010     -0.055847     -0.049481
Fe	      6.38714      4.12271      2.22554         0.384998      0.023195     -0.094058
Fe	      2.26767      2.02987      4.16835        -0.253079      0.013323      0.053293
O	      2.13779      1.98162      2.23962         0.025021      0.061515     -0.123428
O	      4.42709      4.12273      1.99183        -0.163805      0.042631     -0.065336
O	      4.16699      2.10317      4.35278         0.154426     -0.000839      0.079201
O	      6.44397      4.21710      4.17146        -0.052439     -0.033363      0.155282
O	      6.39424      2.00246      6.41494        -0.023456     -0.039548     -0.004186
O	      8.66782      4.17326      6.43037        -0.077959      0.049937      0.013046
O	      2.01427      4.15707      4.22336         0.033888      0.031644      0.076247
O	      4.16018      6.21327      4.31579        -0.175457      0.060033     -0.375540
O	      4.30614      4.21342      6.40959        -0.068350      0.087691      0.047629
O	      6.39363      6.17840      6.41340        -0.380021      0.051758     -0.054566
O	      6.39745      4.27579      8.67650         0.039874      0.001251     -0.119990
O	      8.45554      6.25124      8.65069        -0.008982     -0.029619      0.158474
O	      2.14405      6.27192      6.32262         0.427079      0.030863     -0.000579
O	      4.26896      8.29197      6.24486         0.005868     -0.102649      0.073882
O	      4.31881      6.27108      8.39995         0.010049      0.040228      0.816362
O	      6.43998      8.31905      8.59537         0.015119     -0.069675     -0.104281
O	      6.58185      6.21864     10.71874         0.070218     -0.000537     -0.000677
O	      8.66135      8.18522     10.66025         0.012780     -0.338859      0.027044
