# total energy = -243.45946951 eV
 
CRYSTAL
PRIMVEC
0.028954 6.200458 6.342957 
6.325701 0.013158 6.359012 
4.222703 4.149954 0.003299 
PRIMCOORD
36 1
Li	      6.34401      6.19875     12.52905         0.109234     -0.055758     -0.003829
Li	      8.59021     10.25867     10.62328        -0.020768      0.011135     -0.040476
Li	      6.43758      8.18885     10.58920        -0.038565      0.029615     -0.025473
Li	      8.32372      4.22126      8.62277         0.019929     -0.020408      0.051700
Li	      2.07064      2.22603      4.26361        -0.012323     -0.009316      0.016182
Li	      4.09852      4.17103      4.27978         0.006815      0.013411      0.007434
Li	      6.31976      4.14124      6.37466        -0.038941     -0.003319     -0.020751
Li	      6.39052      4.21523     10.56246         0.041118     -0.007444      0.005331
Li	      8.50241      8.26575      8.55853        -0.017889      0.002136     -0.013265
Sc	      4.18384      2.15868      2.24016         0.004469     -0.027636      0.009548
Ti	      4.26150      1.97312      6.25342        -0.054496     -0.050509     -0.287131
V	      8.42766      8.32744     12.60039        -0.029746      0.114987      0.307339
V	      6.35022      4.10871      2.26851        -0.007314      0.010611     -0.057535
V	     10.51335      6.31289      8.56091         0.036501      0.006588     -0.095291
V	      4.26877      6.12580      6.26122        -0.073243     -0.009892      0.067348
Cr	      6.38360      6.13891      8.51963         0.007642      0.033134     -0.140739
Co	      2.14553      4.12866      6.21476        -0.120354      0.143085      0.059749
Co	      8.42463      6.21789     10.59082        -0.030103     -0.143510     -0.038502
O	      2.08557      2.02244      2.06584        -0.023678      0.029835      0.046965
O	      4.37775      4.21842      2.14524        -0.076160      0.048892      0.075091
O	      4.23013      2.09893      4.33081        -0.012102     -0.004202      0.117974
O	      6.44341      4.15368      3.99317         0.019137      0.005329      0.023013
O	      6.28169      2.09484      6.46831        -0.015742     -0.047854      0.027340
O	      8.46415      4.25216      6.29859         0.055837      0.040247     -0.105846
O	      2.10116      4.24277      4.25676        -0.031307     -0.198077     -0.071780
O	      4.15474      6.20724      4.23826         0.020578      0.105853      0.029656
O	      4.23791      4.13251      6.29541         0.121700     -0.074438      0.041138
O	      6.39549      6.17409      6.40216         0.222629      0.022650      0.063778
O	      6.31942      4.13751      8.48659        -0.000877     -0.010074      0.019462
O	      8.39538      6.23480      8.28455         0.012280     -0.013813     -0.075620
O	      2.20124      6.24110      6.54826        -0.023168     -0.105977      0.052427
O	      4.14273      8.21348      6.43563        -0.062404     -0.118458     -0.052612
O	      4.26779      6.21852      8.36112         0.125465     -0.006952      0.011949
O	      6.29742      8.28669      8.41779        -0.026904      0.009233      0.038043
O	      6.43403      6.21228     10.45524        -0.157628      0.044725      0.051398
O	      8.42066      8.18884     10.71630         0.070380      0.236172     -0.094018
