# total energy = -249.11017828 eV
 
CRYSTAL
PRIMVEC
0.011000 6.353014 6.370265 
6.398974 0.007053 6.374208 
4.255406 4.227290 0.015439 
PRIMCOORD
36 1
Li	     10.45571      4.32940      6.37579         0.024047     -0.031111      0.073871
Li	      8.51788      2.22115      6.32277         0.015541      0.019322     -0.022122
Li	      8.66553     10.53551     10.80589         0.070860      0.017666      0.014316
Li	      6.32243      2.12864      8.40274        -0.036190     -0.037223      0.020667
Li	      8.55452      4.30885      8.43434         0.063832      0.014087      0.036895
Li	      8.64801      6.19426      6.49293        -0.008038      0.024474      0.045461
Li	      6.38307      4.33532     10.52169         0.013273      0.014061     -0.068503
Li	      2.14452      4.21744      6.34007         0.016720     -0.038129     -0.054361
Li	      6.48166      6.26803      8.56840         0.008808     -0.022682      0.039407
Sc	      6.54591      4.18210      6.46151         0.009271      0.032581      0.073731
Ti	      4.24681      6.44351      6.33467         0.036827      0.164028      0.005426
V	      2.09055      0.02843      2.07795        -0.096247      0.048183     -0.042804
V	      4.29641      8.46826      8.48492         0.005279     -0.393614     -0.064252
V	      2.12090      2.20387      4.23583        -0.008960      0.115179      0.085957
V	      8.44357      6.31663     10.59928        -0.005018      0.065840     -0.059926
Cr	      6.39214      2.09057      4.30266         0.144134     -0.182434      0.112147
Cr	      8.54671      8.43852      8.51408         0.099839     -0.008702      0.003912
Fe	      4.20427      4.20334      4.30125        -0.007007     -0.049833     -0.074039
O	      2.22798      2.00928      2.23399         0.336982      0.046516     -0.122019
O	      4.36283      4.14477      2.16656         0.060924      0.302049     -0.012968
O	      4.29965      2.06386      4.13516        -0.030202      0.091890      0.129625
O	      6.37318      4.25044      4.22812         0.071266     -0.066869     -0.058070
O	      6.38908      2.14852      6.27814         0.002608     -0.000572     -0.075399
O	      8.50352      4.23088      6.43739        -0.032197     -0.015728     -0.005892
O	      2.10044      4.17075      4.21960        -0.102658      0.081882     -0.017181
O	      4.21434      6.36356      4.37972         0.023822      0.073871      0.198285
O	      4.28500      4.35203      6.43157        -0.025758      0.046874      0.106099
O	      6.27129      6.32983      6.25692        -0.131280      0.015602     -0.021654
O	      6.26388      4.25242      8.48314        -0.032509      0.000734     -0.030089
O	      8.54015      6.45040      8.63310        -0.042504      0.005408      0.011169
O	      2.28683      6.33617      6.32417         0.093073      0.054565      0.064355
O	      4.31313      8.33027      6.49838        -0.080886     -0.048673     -0.108699
O	      4.19956      6.34257      8.37453        -0.019194     -0.268092     -0.150684
O	      6.42401      8.56029      8.58641        -0.243264     -0.070978     -0.012557
O	      6.50245      6.44904     10.65199        -0.199879     -0.082435     -0.014625
O	      8.41716      8.42800     10.52741         0.004688      0.082265     -0.005480
