# total energy = -242.31324340 eV
 
CRYSTAL
PRIMVEC
0.004686 6.289504 6.275501 
6.478682 -0.003681 6.283872 
4.309147 4.188742 0.007535 
PRIMCOORD
36 1
Li	      0.11005      6.28519      6.23994         0.042929     -0.002672     -0.082011
Li	      6.50251     10.26752      8.37426        -0.066096      0.061427      0.010932
Li	      4.53042      8.35710      8.32796        -0.071285      0.028246     -0.039377
Li	      6.48725      8.34211     10.30598        -0.069173     -0.038936      0.119782
Li	      2.19781      2.08092      4.18628        -0.017798     -0.027048     -0.044627
Li	      8.57041      6.32764      6.29732        -0.011054     -0.015385      0.027120
Li	      8.56651      6.32862     10.50451         0.007697      0.004510     -0.038058
Li	      6.48885      8.38654      6.46395        -0.001163     -0.014165     -0.088620
Li	      8.36425      8.39777      8.41340         0.049544     -0.075323     -0.017397
Sc	      6.42337      4.21280      6.25878         0.023074     -0.047807      0.074404
Ti	      2.28873      4.22395      2.11286         0.101432      0.027398     -0.200341
V	      4.28848      0.09086      4.08705        -0.028874      0.108460     -0.047923
V	      4.31981      6.26919      2.12755         0.174416     -0.008577      0.027226
V	      4.32029      4.04844      4.21294         0.080345      0.121683      0.020291
V	      6.50177      4.24693     10.49308        -0.063658     -0.259142     -0.154815
V	      4.26674      6.28601      6.39086         0.029206      0.000223      0.026000
Fe	      2.15787      8.29824      6.26249        -0.025745      0.204017      0.163950
Cu	      6.49361      6.42657      8.36839        -0.066662     -0.171400     -0.015122
O	      2.04628      2.24664      2.02559         0.073699      0.117318      0.023851
O	      4.22173      4.18095      2.14404        -0.125816     -0.070221      0.037803
O	      4.28836      2.09317      4.22197        -0.050910     -0.000068     -0.000960
O	      6.42549      4.18894      4.22216        -0.023248     -0.011276     -0.053831
O	      6.59790      2.08910      6.40598         0.001189      0.020054     -0.103402
O	      8.58478      4.17545      6.31208        -0.019415     -0.020020      0.065526
O	      2.19097      4.18155      4.04228        -0.341323      0.063325      0.031692
O	      4.33291      6.27376      4.18813         0.011552     -0.108951      0.072501
O	      4.34699      4.19456      6.22831        -0.039912     -0.050175      0.020907
O	      6.32093      6.27309      6.35617         0.069157      0.105855     -0.054963
O	      6.64622      4.19398      8.42763         0.041145      0.038001     -0.017986
O	      8.81430      6.16275      8.34650         0.060221     -0.175976      0.019690
O	      2.26144      6.36365      6.24162        -0.054672     -0.122871     -0.003295
O	      4.21748      8.37485      6.20542         0.037713     -0.100509      0.244302
O	      4.18108      6.28588      8.37694        -0.211527     -0.057499      0.068165
O	      6.46870      8.32174      8.38220        -0.019422      0.155451     -0.011072
O	      6.39375      6.22163     10.38364         0.200793      0.442820      0.085235
O	      8.73251      8.52112     10.53700         0.303641     -0.120765     -0.165576
