# total energy = -243.13202952 eV
 
CRYSTAL
PRIMVEC
0.033559 6.269285 6.420938 
6.306006 0.029222 6.424712 
4.202630 4.181067 0.020455 
PRIMCOORD
36 1
Li	      6.30850      0.07962      6.44340        -0.011531     -0.013896      0.046558
Li	      2.12338      8.31988      6.45359        -0.061857     -0.019624      0.057169
Li	      2.06553      0.07145      2.08810         0.016929      0.031333     -0.015898
Li	      6.29901      2.09805      4.54019         0.046876     -0.005990      0.064302
Li	      8.41150      4.18583      8.53598         0.040135     -0.020865      0.006912
Li	      4.30834      2.04490      6.39595         0.035797     -0.006565      0.069929
Li	      6.37376      4.11925      6.42171         0.039736     -0.009839      0.004823
Li	      4.23584      8.36493      4.38462        -0.009198      0.012093     -0.021662
Li	      4.18865      6.36640      6.34700        -0.043710     -0.034700      0.008253
Sc	      4.21381      4.24718      8.45633        -0.076474     -0.085034     -0.015966
Ti	      8.34870      4.15878      4.46884        -0.058611     -0.239846      0.450018
V	      4.12304      2.12551      2.10910         0.081449      0.046798     -0.136621
V	      6.37723      2.10225      8.46109         0.011500      0.000520     -0.130745
V	      4.27181      4.16388      4.32892        -0.023327      0.083885     -0.002088
V	      6.24806      8.37485      6.42423        -0.005824      0.055092      0.021938
V	      6.34811      6.23254      8.50847        -0.003299     -0.026618     -0.006686
Fe	      8.37296      6.32879     10.78458        -0.024227     -0.000639     -0.131626
Ni	      6.29207      6.29208      4.34083        -0.024933      0.070825      0.012275
O	      2.15209      2.10289      2.20918         0.061323      0.057579     -0.062227
O	      4.25755      4.20361      2.29885        -0.050163      0.180824     -0.019724
O	      4.19815      2.08240      4.22731         0.165220     -0.025191     -0.069515
O	      6.40471      4.21143      4.35490         0.254128     -0.035568      0.001241
O	      6.31925      2.08012      6.56608         0.023561      0.050432     -0.014111
O	      8.46042      4.20185      6.26032        -0.035173      0.010799     -0.568139
O	      2.15413      4.21913      4.33375         0.035286      0.096675      0.006056
O	      4.19526      6.20213      4.20216        -0.092715     -0.046941      0.043820
O	      4.14002      4.20663      6.35585        -0.086557     -0.017068     -0.077004
O	      6.32684      6.35968      6.48436        -0.004103      0.013356      0.043086
O	      6.30513      4.20583      8.50998        -0.071684     -0.045705      0.069619
O	      8.43252      6.33683      8.69061        -0.084009     -0.039242      0.021610
O	      2.12186      6.21527      6.27708        -0.008142     -0.039028      0.048328
O	      4.26998      8.37438      6.54017         0.055806      0.042936      0.072524
O	      4.25173      6.30201      8.64229         0.021077     -0.087597      0.050649
O	      6.27371      8.30144      8.51536        -0.059208     -0.033578      0.056343
O	      6.30032      6.30096     10.55431        -0.080925     -0.030949      0.061316
O	      8.42311      8.44971     10.64699         0.026846      0.111336      0.055240
