# total energy = -228.73354382 eV
 
CRYSTAL
PRIMVEC
0.018332 6.272698 6.288572 
6.299115 0.006487 6.300499 
4.190700 4.181038 0.012984 
PRIMCOORD
36 1
Li	      4.17492      4.17822      0.02826         0.029113     -0.003628      0.000840
Li	      8.37845      2.10904      6.32804        -0.024631      0.005371      0.009716
Li	      4.20316      2.07275      2.15726         0.054452      0.011426      0.062650
Li	      4.17193      0.07839      4.22297        -0.011507      0.033056      0.034617
Li	      2.23976      2.09041      4.22742         0.081524      0.009380      0.064305
Li	      4.15849      4.10479      4.25122        -0.028488     -0.099809      0.070636
Li	      4.17373      2.10695      6.23382        -0.075185      0.023497     -0.046774
Li	      6.33808      8.30048      6.33070         0.028381     -0.072337      0.064048
Li	      6.28950      6.29770      8.32815        -0.019018      0.029242     -0.088616
Sc	      6.16878      2.03020      4.24656        -0.091119     -0.001501      0.020819
Ti	      2.18883      6.30708      8.36805         0.106779     -0.107318     -0.196169
Ti	      2.21600      4.18596      2.05209         0.132940      0.093161     -0.226620
Ti	      4.17979      8.40055      4.32387        -0.021226      0.129024      0.241079
Fe	      6.28539      4.23620      6.25584         0.102738      0.045170     -0.068802
Cu	      4.22737      6.26047      6.27957        -0.077794      0.133228     -0.055600
Ni	      6.32137      2.09318      8.36616         0.037838     -0.042046     -0.049095
Ni	      2.11268      6.25034      4.24380        -0.069568     -0.022392      0.129877
Ni	      4.21754      4.15507      8.36209        -0.079256     -0.045333      0.036210
O	      2.09034      2.09208      2.10441         0.094536     -0.008125      0.005772
O	      4.15775      4.19593      2.07251        -0.133578     -0.099944      0.006213
O	      4.22864      2.06509      4.22975         0.111696      0.012871     -0.061684
O	      6.30280      4.15984      4.11675        -0.004280      0.012729     -0.122400
O	      6.31059      2.21434      6.30020         0.021117     -0.053337     -0.038703
O	      8.31186      4.19811      6.47085         0.071327     -0.014889      0.259671
O	      1.98395      4.19036      4.06454        -0.092723     -0.118398     -0.107665
O	      4.15472      6.37245      4.19260         0.094551      0.035851      0.157558
O	      4.27745      4.24939      6.34309        -0.147602      0.060543     -0.181872
O	      6.16458      6.19237      6.31247         0.455876      0.037544     -0.000863
O	      6.36779      4.14945      8.41260         0.103083      0.112267      0.097361
O	      8.43708      6.17791      8.45168        -0.083477     -0.142607     -0.065526
O	      2.21029      6.28771      6.38754        -0.408812      0.039444      0.259838
O	      4.22905      8.33711      6.16760        -0.048285     -0.123419     -0.322597
O	      4.08952      6.27961      8.34790        -0.059606      0.091247     -0.038895
O	      6.32734      8.51818      8.42047        -0.088990      0.127518      0.015931
O	      6.33097      6.18646     10.51335        -0.097479     -0.196504     -0.000827
O	      8.50431      8.33638     10.42564         0.136672      0.109018      0.135565
