# total energy = -228.73763206 eV
 
CRYSTAL
PRIMVEC
-0.013161 6.248296 6.180308 
6.368680 -0.008482 6.175853 
4.251315 4.167867 -0.010892 
PRIMCOORD
36 1
Li	     -0.00828      6.22381      6.16048         0.061077     -0.014347      0.016929
Li	      2.18586      8.29593      6.18034         0.066526     -0.042296     -0.043231
Li	      6.34261      8.31374     10.27118         0.010278      0.032213     -0.017596
Li	      6.34598      2.12327      8.25708        -0.033674     -0.031404      0.058048
Li	      2.10976      2.11445      4.10610        -0.015046      0.007933      0.022847
Li	      4.21894      4.15948      4.08920         0.047235      0.054516      0.052241
Li	      4.23233      6.33486      6.17490        -0.009173     -0.023259      0.000216
Li	      8.48390      8.31206      8.24935        -0.070232      0.015049     -0.025417
Li	      6.37642      6.25351      8.24690        -0.006676      0.047494     -0.001130
Sc	      6.33885      4.19543      6.24196        -0.432542     -0.039516     -0.025482
Ti	      6.28873      4.19483      2.02394        -0.003002     -0.005797     -0.015484
Ti	      4.28398      2.09550      6.15251         0.174680      0.704581      0.102419
Ti	      8.54044      6.29611     10.27019         0.271204      0.089002     -0.016480
Fe	      4.29553      6.18888     10.27579        -0.097952     -0.474363     -0.394189
Cu	      4.24327      8.33360      8.19039         0.008991     -0.187647     -0.157698
Cu	      0.00980      4.16217      4.11488        -0.073970     -0.222295      0.078598
Ni	      2.15299      4.10141      2.07770         0.112083      0.024540      0.121348
Ni	      6.34281      8.30620      6.15220         0.191983      0.012818     -0.101589
O	      4.30632      8.32743      6.06210        -0.167940      0.027757     -0.172105
O	      2.20694      2.00605      2.03907        -0.045029     -0.116581     -0.005262
O	      4.34133      4.10258      2.06641         0.202873      0.110124     -0.040174
O	      4.26610      1.95041      4.24089         0.040890      0.038314      0.238479
O	      6.44602      4.16285      4.02940         0.049322      0.024641     -0.035329
O	      6.17959      2.10990      6.21685        -0.278890     -0.003936      0.008998
O	      8.45692      4.21155      6.15233         0.005728     -0.012729     -0.080325
O	      2.22999      4.33315      4.10604         0.270084      0.182079     -0.013149
O	      4.09414      6.36988      4.13037        -0.155867      0.189844     -0.022573
O	      4.24175      4.05805      6.18473         0.231353     -0.489683     -0.000148
O	      6.48787      6.24641      6.18335         0.190323     -0.161717      0.007227
O	      6.43827      4.14321      8.28496         0.001478      0.007017      0.044158
O	      8.48313      6.21346      8.28602        -0.028726      0.002662     -0.066576
O	      2.10531      6.25188      6.17742        -0.060441      0.121150      0.029163
O	      4.11440      6.27819      8.26137        -0.072360      0.048072      0.258503
O	      6.26695      8.46063      8.18643        -0.066209      0.045278      0.147422
O	      6.34761      6.11249     10.28961        -0.037113      0.049634     -0.000165
O	      8.35448      8.24820     10.28353        -0.281264     -0.009150      0.047505
