# total energy = -226.96785730 eV
 
CRYSTAL
PRIMVEC
-0.008492 6.203380 6.477916 
6.196984 0.023333 6.445041 
4.162230 4.145163 -0.015429 
PRIMCOORD
36 1
Li	      2.09652      6.16848      8.57363         0.032987     -0.019489      0.036482
Li	      8.30621      4.14092      4.33676        -0.005888      0.001518      0.002980
Li	      2.04353      4.16571      2.23163        -0.111695      0.013014      0.106802
Li	      6.18436      6.26741      4.39614        -0.027203     -0.014194     -0.053570
Li	      4.09633      4.16651      4.42790        -0.034962      0.063150      0.016052
Li	      6.14672      4.24620      6.34772        -0.071077     -0.053260      0.070658
Li	      2.07327      6.12883      4.36532         0.055226     -0.016378     -0.018322
Li	      2.12895      4.10693      6.29074         0.018179     -0.051070     -0.177633
Li	      4.12672      4.20290      8.51124         0.076311      0.030760     -0.086184
Sc	      4.11506      6.20773      2.23469         0.063300      0.474959      0.253610
Ti	      4.19230     10.24371      6.40839         0.142891     -0.292036     -0.270355
Ti	      4.06453      2.05208      2.28164        -0.045375     -0.088287      0.150715
Ti	      6.33525      2.23943      4.26778         0.045752      0.505449     -0.182218
Fe	      8.12586      6.33564      6.46915         0.114745     -0.028898     -0.077438
Cu	      8.28201      2.13242      6.42281         0.055222      0.045698      0.079301
Cu	      0.08241      4.12092      4.26201        -0.019666      0.006041      0.073587
Cu	      6.24096      6.19536      8.55831        -0.000813     -0.230737     -0.042638
Ni	      4.15642      6.17473      6.39493        -0.006300     -0.077545     -0.083938
O	      2.15756      2.04709      2.09071         0.119069      0.022860      0.044806
O	      4.18215      4.07099      2.01626         0.031152     -0.062716     -0.113351
O	      4.20168      2.07224      4.18240         0.032774     -0.045267     -0.104865
O	      6.23322      4.03938      4.29729         0.051781     -0.620460     -0.027489
O	      6.02208      1.98816      6.39416        -0.028516     -0.039265     -0.004724
O	      8.42492      4.11608      6.43022        -0.095162      0.219709      0.015515
O	      1.99735      4.14305      4.28296         0.100103      0.033673      0.027372
O	      4.12833      6.28584      4.27756        -0.054758     -0.389068      0.039484
O	      4.09100      4.11988      6.43128         0.007162     -0.116810      0.004981
O	      6.24100      6.17180      6.36328         0.027553      0.065405     -0.028239
O	      6.17930      4.17149      8.73092        -0.091192     -0.001618     -0.787234
O	      8.24969      6.22981      8.47249         0.078320      0.007230      0.020021
O	      1.99949      6.35124      6.49052        -0.121300     -0.117580      0.023263
O	      4.30924      8.33129      6.58354        -0.118896      0.243761      0.445763
O	      4.24088      6.35390      8.50325        -0.188913      0.095183      0.117419
O	      6.14973      8.24479      8.83181         0.027557      0.032952      0.135347
O	      6.20291      6.18333     10.95207        -0.006183      0.418046      0.409418
O	      8.20068      8.30003     10.84828        -0.052185     -0.014731     -0.015378
