# total energy = -234.41937195 eV
 
CRYSTAL
PRIMVEC
0.003649 6.577442 6.177748 
6.200960 0.003213 6.177900 
4.154913 4.407855 -0.019125 
PRIMCOORD
36 1
Li	      8.33749     10.69178     10.25818        -0.078978      0.008946     -0.042616
Li	      6.34082      8.75892     10.30179        -0.103355     -0.001134     -0.024803
Li	      6.21010      6.68048      4.16238        -0.006698      0.040200     -0.024574
Li	      4.14904      2.21201      6.01140         0.031679      0.003580      0.004090
Li	      4.05407      8.76781      4.23184         0.122374      0.031799     -0.027374
Li	      8.33648      6.75860     10.37298        -0.012786     -0.026089      0.002588
Li	      6.13903      8.87620      6.16341         0.070402     -0.025555      0.020101
Li	      4.11224      6.54491      6.13916        -0.121910     -0.045937     -0.001509
Li	      8.24408      8.85994      8.39524        -0.083762     -0.019189     -0.089692
Sc	      6.17972      2.29258      8.25234        -0.004664      0.011889      0.098769
Ti	      3.99242      4.40933      4.18395        -0.246231     -0.104373      0.125511
Ti	      6.30844      4.52428      6.03481         0.063260      0.274481     -0.089016
Ti	      6.27375      6.61125      8.32651        -0.002496      0.217939      0.165438
Fe	      6.26486      6.55233     12.23740        -0.142271      0.055484      0.042519
Fe	      4.12233      8.67669      8.24855         0.015884      0.019413     -0.054339
Co	      8.26295      4.44706      8.25515        -0.014862      0.000729     -0.195084
Cu	      8.29941      8.74467     12.24964         0.027763     -0.005433     -0.002448
Cu	      6.29645     10.93925      8.25646         0.080616     -0.085416      0.054869
O	      2.09448      2.38789      1.97103         0.012372      0.628807      0.130885
O	      4.25055      4.48198      2.04627        -0.217775     -0.020356     -0.021988
O	      4.12892      2.46981      3.96133         0.069514      0.168764      0.154314
O	      6.20739      4.42290      4.13186         0.020468      0.002177      0.357299
O	      6.23893      2.19929      6.17086        -0.137459      0.040933     -0.050107
O	      8.26527      4.55168      6.14829        -0.025918      0.068847      0.404974
O	      2.12543      4.36431      4.12980         0.254873      0.014511     -0.382496
O	      4.15894      6.39060      4.06392        -0.037711     -0.082454      0.041374
O	      4.28314      4.34881      6.04202         0.002053      0.005341     -0.311787
O	      6.20577      6.38897      6.24983        -0.028303     -0.291463      0.073854
O	      6.13105      4.42140      8.10053         0.091570      0.010535     -0.012697
O	      8.19435      6.52847      8.22834        -0.043710     -0.415243      0.082902
O	      1.98925      6.47476      6.32346         0.023503     -0.062164     -0.048616
O	      4.09393      8.95786      6.25102         0.057776     -0.001516     -0.002443
O	      4.14518      6.67115      8.25158         0.269127     -0.043380      0.008399
O	      6.16510      8.47853      8.18570         0.055851     -0.351396      0.018147
O	      6.20692      6.52411     10.24376         0.002179     -0.009785     -0.218648
O	      8.30836      8.73312     10.33703         0.037626     -0.013492     -0.185796
