# total energy = -224.43450197 eV
 
CRYSTAL
PRIMVEC
-0.007684 6.179503 6.186644 
6.434859 -0.054043 6.232681 
4.261376 4.121544 -0.007111 
PRIMCOORD
36 1
Li	      6.38308     10.22767      8.18828        -0.021268      0.010117     -0.022519
Li	      4.38169      8.21743      8.17571         0.004688      0.042373     -0.080411
Li	      2.14125      4.09126      2.10616         0.011394      0.008455      0.012611
Li	      4.36041      4.10656      4.17778         0.102980      0.008153     -0.031284
Li	      6.23057      4.21414      6.25975         0.049875     -0.114274     -0.005174
Li	      6.47146      8.19079      6.29497         0.072890      0.052848     -0.025263
Li	      4.42491      6.00188      6.35496        -0.060066      0.071807     -0.102060
Li	      4.28863      4.20321      8.12369        -0.004139     -0.072770      0.042899
Li	      6.23169      6.15918      8.12106        -0.001842     -0.021551      0.033328
Sc	      4.24730      6.13213     10.15748        -0.075348      0.005092      0.195339
Sc	      8.47012      6.25938      6.32706         0.206036     -0.087459      0.062270
Mn	      2.14782      2.06373      0.09679        -0.007419      0.100026     -0.060266
Mn	      2.13685      6.11729      4.09513         0.013480     -0.046612      0.016588
Fe	      6.33383      8.26902     10.12529         0.049732     -0.069239      0.380548
Co	      4.25801      4.11846      0.03174        -0.116421      0.001077      0.112850
Co	      0.02398      2.06317      2.08292         0.066625     -0.019205      0.010107
Co	      6.38521      6.17289      4.13523        -0.066229      0.101159      0.157773
Co	      6.42712      4.06353     10.33271         0.025181      0.007779      0.038052
O	      1.99134      2.05144      2.03980        -0.031882     -0.010493      0.216040
O	      4.28958      4.23331      1.93264         0.011743     -0.008338      0.012735
O	      4.36694      2.00884      4.19942        -0.174982      0.059148     -0.039951
O	      6.47389      4.01342      4.18846        -0.043072      0.127248     -0.017571
O	      6.54792      1.91175      6.29316        -0.275823     -0.026992      0.106122
O	      8.72615      3.96165      6.24677         0.027509     -0.007087      0.010808
O	      1.90328      4.18745      4.17257        -0.060179     -0.144703     -0.004296
O	      4.32363      6.31195      4.01002         0.132852      0.009436     -0.054422
O	      4.28070      4.06008      6.19069        -0.007458      0.064263     -0.034484
O	      6.48201      6.13630      6.14192        -0.149932     -0.015925     -0.309894
O	      6.42908      3.95183      8.44473         0.025712      0.078982     -0.018810
O	      8.75062      6.10034      8.39494         0.099393      0.033961      0.035328
O	      1.96660      6.29462      6.09318        -0.053839     -0.072690      0.038256
O	      4.08444      8.35880      6.10578         0.228771     -0.010284     -0.043649
O	      4.27835      6.17375      8.25995        -0.001741     -0.013323     -0.226458
O	      6.42333      8.16842      8.32764         0.050154     -0.030953     -0.430070
O	      6.38496      6.09880     10.45785        -0.036242     -0.023213      0.027396
O	      8.60046      8.09995     10.45135         0.008865      0.013187     -0.002469
