# total energy = -221.40538272 eV
 
CRYSTAL
PRIMVEC
0.007059 6.297029 6.289035 
6.352867 -0.005017 6.301048 
4.236112 4.206875 -0.004257 
PRIMCOORD
36 1
Li	      6.38437      6.32617     12.48045        -0.137783      0.075689     -0.005889
Li	      6.36520      4.23768      2.19791        -0.045319      0.024381      0.076092
Li	      4.38305      8.21414      8.54612         0.013932      0.078223      0.137189
Li	      4.18750      0.05652      4.20771        -0.157874      0.074757      0.187312
Li	      6.23802      2.21028      4.16933        -0.065200      0.152328     -0.053007
Li	      6.40128      6.13594      4.24421         0.065565     -0.086160      0.016248
Li	      6.40369      4.18200      6.06471         0.062894     -0.012541     -0.068090
Li	      2.05727      6.30585      4.28283         0.016504     -0.000296     -0.072730
Li	      6.21338      6.43034      8.45330         0.094648     -0.006963      0.033013
Sc	      2.15283      4.18792      2.09425         0.064171     -0.135197     -0.085585
Sc	      8.39223      8.50649      8.47644        -0.133843     -0.348735      0.122359
Mn	      4.23458      6.27933      2.09429         0.164632     -0.178882     -0.233703
Mn	      6.37121      4.25383     10.53275         0.062735     -0.208114      0.018592
Fe	      4.19069      2.03059      6.16911         0.028698     -0.093354     -0.185512
Fe	      6.34077      8.45775      6.33342        -0.042285     -0.241505     -0.080831
Co	      4.28242      6.30287      6.31199        -0.069998      0.068341     -0.072074
Cu	      8.41504      8.35557     12.52502        -0.099620      0.086408      0.004202
Ni	      4.38003      4.17771      4.20529        -0.035175     -0.024049     -0.118988
O	      6.33304      4.17958      4.17917         0.261168     -0.010662     -0.083888
O	      1.93090      2.11904      1.90191        -0.096148     -0.040715      0.095143
O	      4.19819      4.36774      2.16947        -0.035794      0.108443     -0.219830
O	      4.23943      2.14773      4.25563        -0.041176     -0.125957      0.019994
O	      6.21700      2.09309      6.45381         0.065115      0.031675      0.142426
O	      8.41598      4.29208      6.33933         0.059257     -0.253830      0.084982
O	      1.99391      4.18853      4.21146        -0.079109      0.079813      0.014122
O	      4.28050      6.36271      4.09188        -0.022389      0.190385      0.496987
O	      4.16595      4.14485      6.28753         0.108015      0.894582      0.277977
O	      6.39496      6.38924      6.30326        -0.699522      0.020954      0.155262
O	      6.34933      4.05753      8.55757        -0.071208      0.044082      0.068234
O	      8.63640      6.30919      8.35368        -0.079636      0.098946     -0.017973
O	      2.26483      6.23576      6.25127         0.739729      0.279558      0.097415
O	      4.33797      8.40664      6.15005        -0.025792     -0.738827      0.109724
O	      4.27383      6.27456      8.30915        -0.013880      0.243161     -0.781175
O	      6.38801      8.39202      8.30932         0.073970     -0.012586      0.056978
O	      6.38523      6.08713     10.45940        -0.011742     -0.044627      0.030559
O	      8.64774      8.38499     10.56974         0.082460      0.011274     -0.165537
