# total energy = -230.42502726 eV
 
CRYSTAL
PRIMVEC
0.046585 6.231758 6.399054 
6.448433 0.091761 6.353070 
4.361372 4.185787 -0.000702 
PRIMCOORD
36 1
Li	      2.32080      8.15904      6.48883        -0.029693      0.030425      0.016387
Li	      2.15126      6.29353      8.33828         0.016868      0.017734     -0.014576
Li	      2.19218      4.15099      2.30533        -0.016339      0.023150      0.053877
Li	      6.44264      6.35146      4.24734        -0.003373     -0.004852      0.014239
Li	      4.18651      4.27511      4.25436        -0.029104     -0.001745      0.058144
Li	      0.17908      4.11144      4.27664        -0.018043      0.006207     -0.035675
Li	      2.29886      6.17570      4.27619        -0.016976      0.030090     -0.025881
Li	      4.27331      6.28494      6.19349         0.037236     -0.005096     -0.073262
Li	      6.52515      6.26632      8.43622         0.001570     -0.017956      0.016697
Sc	      4.38118      6.26853     10.63970        -0.007115     -0.128690     -0.054174
Sc	      6.52723      8.36488     10.55972         0.143559     -0.003772     -0.008260
Mn	      6.53553      4.26744      6.41224        -0.002729     -0.048502      0.115961
Mn	      4.33760      4.25870      8.48496         0.024796     -0.043927      0.024825
Fe	      4.19172      2.17991      2.07630        -0.029399     -0.103129      0.057229
Fe	      4.52491      6.23688      2.30516         0.010433      0.028044     -0.171728
Fe	      8.65061      6.32915      6.46363         0.037573      0.146800     -0.088726
Fe	      2.09285      4.24710      6.24857         0.042905     -0.177318      0.232443
Co	      4.37587      4.18326      0.01891        -0.076312     -0.059047     -0.059496
O	      2.22243      2.07538      2.11130        -0.026699     -0.015603      0.040412
O	      4.35304      4.21311      1.97130        -0.016725      0.027914     -0.094075
O	      4.37950      2.14624      4.19584         0.013897      0.045745      0.033525
O	      6.59380      4.19337      4.50152         0.013364      0.009882     -0.096328
O	      6.40027      2.16011      6.36592         0.011908      0.035968      0.010501
O	      8.81559      4.35666      6.35153         0.015599     -0.093239     -0.006913
O	      2.18962      4.16150      4.39117        -0.024723     -0.004613     -0.218410
O	      4.38652      6.25650      4.14967         0.021056      0.005179      0.320969
O	      4.24303      4.19559      6.50333        -0.026416      0.005351     -0.009315
O	      6.66569      6.25199      6.41235        -0.084733      0.023720      0.002297
O	      6.55308      4.18139      8.32802         0.009286      0.049077      0.017374
O	      8.78778      6.47987      8.42769         0.007520     -0.015997      0.058711
O	      1.99639      6.19794      6.37671         0.024190      0.138816      0.007014
O	      4.39392      8.45551      6.46545         0.049347     -0.015348     -0.024349
O	      4.32247      6.24521      8.54467        -0.014705      0.043262     -0.034371
O	      6.37263      8.33091      8.50609        -0.036582      0.062043     -0.117275
O	      6.44602      6.31720     10.79204         0.023016     -0.007443      0.103908
O	      8.62655      8.40823     10.44530        -0.044454      0.016872     -0.051703
