# total energy = -220.27730076 eV
 
CRYSTAL
PRIMVEC
0.028528 6.544860 6.194092 
6.312577 0.059887 6.163409 
4.228220 4.362496 0.020012 
PRIMCOORD
36 1
Li	      6.23045      4.47957      2.09877         0.073084     -0.040549     -0.009823
Li	      6.25084      2.38395      4.22858        -0.004534      0.095507      0.005111
Li	      4.31628      6.37190      2.08909        -0.022996      0.027449     -0.030624
Li	      8.49072      4.55250      8.18064        -0.035551      0.091882      0.122199
Li	      6.21885      6.51167      4.16881         0.016640     -0.025570      0.018979
Li	      4.32722      4.32383      4.13023         0.010112     -0.065935      0.124362
Li	      4.20607      2.30179      6.17478         0.048962      0.109568     -0.022539
Li	      4.21536      6.45438      6.18540        -0.035872     -0.040091      0.011141
Li	      4.20148      4.36795      8.13720        -0.029289     -0.013259      0.004644
Sc	      4.16901      2.31124      2.09337         0.273098     -0.257981      0.148057
Sc	      8.34954      4.48512      4.19301        -0.177382      0.191813     -0.218649
Mn	      4.24096      8.64059      4.12616         0.121265     -0.160398     -0.279624
Mn	      2.18099      4.33031      6.13699        -0.083585     -0.296658     -0.031896
Mn	      6.37947      6.58908      8.22902        -0.037263     -0.012055     -0.126539
Co	      8.44821      2.33227      6.20264        -0.529659      0.146723      0.373902
Cu	      0.06008      0.12315      0.08272         0.075931      0.002196     -0.020229
Cu	      6.24251      4.33348      6.22142        -0.102478      0.187970      0.072831
Cu	      8.47423      6.57000     10.24046         0.328800     -0.006961     -0.066252
O	      4.13308      6.78060      4.04898        -0.095428      0.063413     -0.071403
O	      4.02856      4.40221      6.11318         0.090797      0.040895      0.000652
O	      8.27722      6.61135      8.29673         0.000670      0.016292      0.091240
O	      2.13905      2.09549      1.87095         0.433951     -0.034956      0.187056
O	      4.25965      4.33657      2.07636         0.008366      0.101130     -0.058845
O	      4.25449      2.16243      4.08646         0.026106     -0.097278     -0.020793
O	      6.33196      4.41812      4.26108         0.092401      0.023942     -0.117963
O	      6.53892      2.36913      6.20141        -0.779787     -0.077811     -0.170886
O	      8.66297      4.40447      6.22394        -0.093615     -0.102543      0.159217
O	      1.93287      4.19541      4.22928        -0.131085     -0.089072     -0.040811
O	      6.35802      6.66233      6.32954        -0.005685      0.003820     -0.105508
O	      6.31866      4.62874      8.28272         0.003150      0.002402     -0.072721
O	      2.04903      6.30645      6.09898        -0.066467      0.122255     -0.108582
O	      4.23485      8.61199      6.07334         0.594960      0.000354      0.147390
O	      4.40784      6.64515      8.29039        -0.041270      0.055785      0.079125
O	      6.35728      8.58416      8.11661        -0.132300      0.017886      0.047419
O	      6.40209      6.40462     10.22749        -0.031887     -0.031675      0.170950
O	      8.58756      8.87506     10.47621         0.237842      0.051510     -0.190588
