# total energy = -222.99935158 eV
 
CRYSTAL
PRIMVEC
0.030467 6.180744 6.364401 
6.281625 -0.009959 6.405699 
4.175936 4.135850 0.004552 
PRIMCOORD
36 1
Li	      8.21083      2.15826      6.34404        -0.014394      0.055316      0.091983
Li	      4.29064      8.17446      8.61731         0.001122     -0.032097     -0.129082
Li	      2.30597      2.00223      4.27831        -0.055081      0.022840      0.050322
Li	      4.20489      4.01621      4.28189         0.002784      0.099659      0.009385
Li	      4.19230      2.12685      6.31643        -0.004597     -0.012060      0.036939
Li	      6.35625      3.98632      6.52141        -0.008191      0.029427      0.024691
Li	      6.26125      4.11534     10.56916         0.073947     -0.086360     -0.006442
Li	      8.34585      8.24306      8.51815        -0.001463     -0.031677     -0.088484
Li	      6.35671      6.18304      8.52891        -0.008279      0.074923     -0.089430
Sc	      6.19010      0.05311      6.35051        -0.145674      0.030443      0.205682
Sc	      4.25147      6.18433      6.26694         0.138357     -0.001909      0.069504
Mn	      6.26587      4.16673      2.19034        -0.105361      0.079776     -0.341140
Mn	      2.05478      4.08655      2.21459         0.002503      0.021246     -0.037703
Mn	      2.15262      4.08388      6.34130        -0.019052     -0.214253     -0.109154
Co	      4.17386      6.21594      2.21111         0.007911      0.097038     -0.019451
Co	      8.39553      6.21171     10.61756         0.243788     -0.222238     -0.048161
Cu	      4.23357      6.14566     10.56948        -0.049583     -0.151841      0.049722
Cu	      6.28713      8.25503     10.59177        -0.020000      0.199181      0.075564
O	      4.30904      1.90945      4.27068         0.309938     -0.031403     -0.066143
O	      8.27257      8.22524     10.64804        -0.282218     -0.021988     -0.005892
O	      1.96053      2.09897      2.23258         0.014349      0.052451      0.101599
O	      4.21658      4.22626      2.14692         0.034031     -0.036498      0.070100
O	      6.33298      4.06401      4.13220         0.089788     -0.352604      0.559564
O	      6.26549      2.04701      6.67873         0.016279     -0.027552      0.054217
O	      8.36591      4.09399      6.70188         0.069547      0.030700     -0.082694
O	      2.12568      4.26125      4.22402        -0.014632      0.061802      0.148299
O	      4.03792      6.22528      4.17327        -0.154910      0.019530     -0.018373
O	      4.05979      4.13085      6.33144        -0.012869     -0.031628     -0.080391
O	      6.29023      6.32546      6.35757        -0.027295      0.075034     -0.131520
O	      6.42838      4.01122      8.58449        -0.148162      0.045979      0.082745
O	      8.50067      6.10810      8.72472        -0.008036     -0.011946      0.096241
O	      2.10019      6.10900      6.28850        -0.021155      0.048970     -0.322969
O	      4.37183      8.27780      6.30103        -0.055565      0.040153     -0.045638
O	      3.99823      6.21402      8.36198         0.075906     -0.002961     -0.033104
O	      6.27885      8.31927      8.23747        -0.025535     -0.062425      0.011665
O	      6.35773      6.24977     10.61790         0.101803      0.246974     -0.082452
