# total energy = -222.56497048 eV
 
CRYSTAL
PRIMVEC
-0.007271 6.309090 6.164489 
6.359023 -0.032336 6.189713 
4.225383 4.208858 -0.007440 
PRIMCOORD
36 1
Li	      4.20860      2.08624      2.11364        -0.024283      0.018546     -0.042231
Li	      4.34655      6.32778     10.22886         0.046675      0.010142     -0.015016
Li	      6.27301      8.31291     10.27623        -0.048771     -0.003645     -0.029230
Li	     10.51492      6.29875      8.29988        -0.020084      0.001974      0.010457
Li	      2.12787      4.22785      2.09813         0.004625      0.001730      0.033873
Li	      6.37149      4.15743     10.25394         0.043575      0.002617      0.011491
Li	      8.51812      6.25113     10.20249         0.047925     -0.035478      0.002431
Li	      4.30085      6.29764      6.13884         0.071960      0.011439      0.008829
Li	      6.34746      6.30075      8.27748         0.017189      0.029154     -0.019401
Sc	      8.50068      8.39318     12.29193         0.142512      0.026543     -0.010328
Sc	      2.17238      6.29922      8.27190         0.003860     -0.053274     -0.067462
Mn	      4.17760      4.22569      4.06637        -0.203773      0.030385      0.224886
Mn	      6.34090      4.21711      6.21482        -0.139831      0.024864      0.077066
Mn	      8.47709      8.35787      8.31414        -0.101775     -0.025687     -0.179219
Co	      6.34920      6.28049     12.21483         0.032792     -0.176803     -0.086687
Co	      6.24111      8.33373      6.17232         0.598939      0.176254      0.120325
Ni	      2.09946      2.12924      4.07241        -0.016650      0.065415      0.010037
Ni	      8.46763      6.27524      6.18689        -0.007680      0.004508      0.020435
O	      2.15190      2.05103      2.00263         0.002168     -0.040912     -0.067698
O	      4.23850      4.18250      2.13267         0.004532      0.024119      0.097919
O	      4.18579      2.26146      4.14180         0.100594      0.059472     -0.092751
O	      6.18337      4.20955      4.22134        -0.001401     -0.090784     -0.028285
O	      6.36931      2.17632      6.16886         0.068594      0.009884     -0.005847
O	      8.34366      4.20495      6.18951        -0.028537     -0.122623     -0.007936
O	      2.26044      4.19539      4.18199        -0.136961      0.019396      0.056406
O	      4.26445      6.12504      4.12368        -0.093772     -0.112632     -0.019989
O	      4.33288      4.16793      6.19001         0.052522      0.047162     -0.011395
O	      6.37568      6.17494      6.14658        -0.060656      0.084564      0.028108
O	      6.21149      4.20428      8.11666         0.044741     -0.019632      0.000446
O	      8.45617      6.46458      8.20808         0.033352      0.103497      0.118507
O	      1.99157      6.32523      6.20507        -0.028969     -0.154960     -0.014168
O	      4.24950      8.48609      6.16002        -0.211476      0.125465     -0.021809
O	      4.20150      6.12793      8.26363        -0.020699     -0.070318      0.015218
O	      6.52243      8.38398      8.16420        -0.165183     -0.020291     -0.144108
O	      6.30579      6.30577     10.45894        -0.022236      0.050511      0.090777
O	      8.49989      8.37083     10.18307         0.016180     -0.000602     -0.063650
