# total energy = -242.78179445 eV
 
CRYSTAL
PRIMVEC
-0.013227 6.399609 6.327850 
6.337001 0.009222 6.306084 
4.232601 4.259820 -0.001792 
PRIMCOORD
36 1
Li	      8.32084      2.27037      6.37475         0.062570     -0.067789      0.011123
Li	      6.32820      4.28974      2.26383         0.002224     -0.001583     -0.010503
Li	      6.23226      2.32740      4.29455         0.017713     -0.005386      0.021598
Li	      6.37306      2.24663      8.29926         0.015155     -0.025967      0.013715
Li	      6.40937      6.23072      4.20133        -0.038539      0.021338      0.032609
Li	      4.46338      4.17333      4.16503         0.003958      0.061568      0.000010
Li	      4.29801      2.12796      6.28468        -0.001861     -0.013369     -0.031694
Li	      6.39996      4.10010      6.21647         0.003191      0.012395      0.035193
Li	      4.26232      4.26221      8.39593        -0.016008      0.032737     -0.015416
Sc	      6.32432      0.20009      6.36965         0.168325     -0.009057     -0.000111
Sc	      8.44703      6.50409     10.40588         0.102975     -0.030710      0.060706
Mn	      4.19353      2.15833      2.20141         0.077664     -0.025459     -0.097923
V	      4.23492      6.27686      6.34448        -0.045109      0.139183     -0.010746
Cr	      8.36223      4.26611      4.23058        -0.042625     -0.078227     -0.040841
Cr	      8.43771      4.24939      8.39810        -0.043186      0.041526      0.064264
Cr	      6.31786      4.25435     10.48609         0.034638     -0.144609      0.079251
Cr	      6.31249      8.49326      6.31890         0.030376     -0.024583     -0.011099
Ni	      6.32300      6.38834      8.39744        -0.029561      0.005912     -0.066673
O	      2.27523      2.25035      2.11036         0.043734      0.045647      0.029193
O	      4.15506      4.21563      2.10175        -0.043709      0.032196      0.044373
O	      4.23959      1.99158      4.21975        -0.001483     -0.092129     -0.052725
O	      6.43972      4.24858      4.22011         0.080886     -0.041545     -0.023368
O	      6.36288      2.10771      6.33313         0.041671      0.016470     -0.010817
O	      8.50268      4.25357      6.31970        -0.039453      0.022804     -0.084446
O	      2.01031      4.33784      4.20602        -0.051610     -0.001459     -0.026566
O	      4.18766      6.48116      4.35646        -0.058107      0.099664     -0.138365
O	      4.11582      4.47642      6.33155        -0.112155     -0.330335     -0.003558
O	      6.14396      6.49130      6.35120         0.196318      0.065912     -0.080759
O	      6.42496      4.28607      8.50015         0.091756     -0.048899      0.060967
O	      8.39634      6.31827      8.40386         0.075317     -0.044662     -0.021710
O	      2.15686      6.28963      6.28231        -0.188792      0.007294     -0.016842
O	      4.28751      8.39934      6.24001        -0.007231      0.131517     -0.002207
O	      4.22232      6.43457      8.37751        -0.079755      0.016224      0.190177
O	      6.15581      8.47577      8.29546        -0.116411      0.085898      0.036451
O	      6.29486      6.29371     10.54402        -0.112903     -0.004143      0.051975
O	      8.53709      8.56385     10.47246        -0.019972      0.151629      0.014766
