# total energy = -236.39071405 eV
 
CRYSTAL
PRIMVEC
0.010755 6.339867 6.259302 
6.366771 -0.004843 6.274722 
4.236888 4.229527 0.004473 
PRIMCOORD
36 1
Li	      6.45190      0.10150      6.29034         0.077901      0.018564     -0.006449
Li	      8.36228      2.05066      6.33179         0.002515     -0.018882      0.028649
Li	      0.06867      2.01788      2.03912         0.004754      0.023457     -0.019356
Li	      4.15364      4.38350      4.14096        -0.022613      0.051735     -0.069261
Li	      8.47407      6.27294      6.25290        -0.015091      0.028212      0.037466
Li	      2.21457      6.27644      4.36553         0.028100      0.011116      0.018469
Li	      2.15343      4.25532      6.21900         0.003318     -0.020610     -0.009022
Li	      4.22613      6.33213      6.17814         0.008090      0.025076     -0.000555
Li	      6.37555      6.32375      8.20082        -0.001762     -0.006455     -0.055429
Sc	      4.25250      8.45811      8.22537        -0.027406      0.024801     -0.072767
Sc	      4.27338      8.44616      4.27074         0.028239      0.027885     -0.072671
V	      4.27689      4.07851      8.22688        -0.010177     -0.211759      0.154887
Cr	      2.12369      6.33791      8.24286        -0.014043      0.004742     -0.010992
Cr	      8.50746      4.22162      4.27781         0.074788     -0.045601      0.049199
Cr	      6.35861      2.08720      4.27624         0.003251     -0.042336     -0.011823
Cr	      6.33608      6.34748      4.23790         0.011116      0.054814     -0.045047
Cu	      2.28387      4.27237      1.97949         0.073747      0.093109      0.003106
Ni	      6.39346      4.24132      6.29432        -0.111861      0.003771      0.072152
O	      2.17303      1.98462      2.16640        -0.018053     -0.136943     -0.020062
O	      4.32240      4.17057      2.12468         0.203556     -0.014719      0.009905
O	      4.27842      1.99898      4.15818        -0.030062      0.015201      0.043985
O	      6.44536      4.21261      4.16676        -0.008388     -0.007229     -0.082721
O	      6.33383      2.20758      6.19634        -0.018640     -0.135434      0.046219
O	      8.41662      4.22464      6.32144         0.020799     -0.010240     -0.104209
O	      2.10574      4.13972      3.99609         0.044787      0.003506      0.113869
O	      4.35125      6.39241      4.16309        -0.004488     -0.010626     -0.031979
O	      4.22503      4.25030      6.48733        -0.112470      0.010004     -0.182207
O	      6.37317      6.28351      6.18224        -0.014845      0.081394     -0.021219
O	      6.09810      4.29200      8.38213        -0.090892      0.009174      0.049070
O	      8.42334      6.57665      8.42069        -0.033093      0.099303     -0.020538
O	      2.15110      6.31844      6.34465         0.008116      0.016399      0.017298
O	      4.27328      8.43955      6.25437         0.043751     -0.016224      0.008928
O	      4.14722      6.25769      8.48238        -0.001807      0.029965      0.001434
O	      6.46255      8.51237      8.43159        -0.038727      0.010764      0.065265
O	      6.26828      6.40838     10.46640        -0.035534      0.024719      0.048757
O	      8.42862      8.53731     10.36173        -0.026875      0.009350      0.067647
