# total energy = -242.50805758 eV
 
CRYSTAL
PRIMVEC
0.003944 6.271458 6.471982 
6.142977 0.018517 6.456835 
4.119119 4.194779 -0.012014 
PRIMCOORD
36 1
Li	      8.19098      2.16186      6.45048        -0.065899      0.059024      0.005520
Li	      6.23048     10.37511      8.69067        -0.013258     -0.023027      0.162495
Li	      6.12199      2.18614      4.31299         0.027710      0.011463      0.034283
Li	      2.11650      2.05687      4.32039         0.080791     -0.049298     -0.023203
Li	      4.09785      2.04333      6.39303         0.059668     -0.097208     -0.104279
Li	      6.21616      4.17804      6.35092         0.123731     -0.088743     -0.106999
Li	      6.11660      4.23558     10.77616        -0.047549      0.084086     -0.056232
Li	      6.17355      8.37558      6.53342         0.017179      0.033719     -0.013749
Li	      6.12485      6.32053      8.58299         0.035602     -0.010537     -0.023361
Sc	      6.24087      2.13913      8.54256         0.028928     -0.019983     -0.138546
Sc	      8.08748      6.35094     10.81518        -0.294497      0.163710     -0.081167
V	      4.23945      6.31316      6.44196         0.033999      0.156212     -0.183404
Cr	      4.11295     10.43287      6.47376        -0.182787      0.236204     -0.261554
Cr	      4.15811      8.31454      8.64531         0.003305      0.052983      0.423623
Cr	      8.15786      4.23930      8.59966         0.002968      0.027202     -0.037556
Cr	      4.16956      4.14303      4.37981         0.289593     -0.294686     -0.095423
Cr	      4.03116      4.22515      8.57365        -0.028479     -0.081335      0.399207
Cu	      8.12944      4.18291      4.38124         0.101598      0.067499      0.048159
O	      2.13157      2.21568      2.17256         0.012725     -0.043323      0.017211
O	      4.08696      4.12838      2.17709         0.004585     -0.020599      0.028928
O	      4.12113      2.12536      4.19710        -0.025439      0.406974     -0.163068
O	      6.16939      4.21514      4.30751        -0.670347      0.026709     -0.002076
O	      6.16335      1.96498      6.55030         0.014310     -0.058108      0.160861
O	      8.27265      4.21993      6.62483         0.111556     -0.015173      0.370508
O	      2.13329      4.24232      4.17251        -0.027592      0.038329      0.006664
O	      4.09330      6.20994      4.37248         0.050735      0.026004      0.427555
O	      4.09261      4.30098      6.43489         0.015092      0.366069      0.049819
O	      5.98964      6.31818      6.41380        -0.340125      0.018011     -0.015962
O	      6.13572      4.16942      8.60385        -0.067372      0.075514     -0.016593
O	      8.21591      6.33776      8.66029        -0.003285      0.000874     -0.048734
O	      2.09785      6.30296      6.39094         0.145672     -0.023481      0.078092
O	      4.11421      8.34689      6.58125         0.032326     -0.463050      0.006303
O	      4.08760      6.27406      8.41038         0.040108     -0.111177     -0.666471
O	      6.17092      8.35000      8.56801         0.009679     -0.011421     -0.100358
O	      6.03324      6.24132     10.95341         0.457712     -0.005968      0.207237
O	      8.18993      8.42782     10.56679         0.067058     -0.433469     -0.287729
