# total energy = -250.71668731 eV
 
CRYSTAL
PRIMVEC
0.010399 6.291105 6.359554 
6.328769 0.016267 6.353644 
4.238115 4.209036 -0.008042 
PRIMCOORD
36 1
Li	      8.42919      8.42709     12.61247         0.043664     -0.045828     -0.029296
Li	     10.45617      6.39733      8.65077        -0.057470      0.010192      0.046476
Li	      2.05409      2.29134      4.23902        -0.033261     -0.046546      0.015731
Li	      4.05028      4.24522      4.33817         0.037929     -0.009229      0.030842
Li	      4.20778      2.20496      6.39012        -0.009052      0.016694      0.019182
Li	      0.08230      4.09129      4.17849        -0.001098      0.026370     -0.005248
Li	      2.22763      6.22595      4.13074         0.004115      0.022309      0.004425
Li	      2.17303      4.17037      6.12753        -0.030715      0.004622     -0.047366
Li	      8.52273      8.25941      8.49422        -0.006215     -0.030404     -0.001480
Sc	      6.29634      4.29254      2.14975        -0.023664      0.044159     -0.078473
Sc	      4.19801      6.29194      6.17318         0.006748      0.015711     -0.075046
V	      4.21089      2.12434      2.12748         0.009874     -0.026506     -0.067993
Cr	      0.03472      6.29092      6.33760         0.020496     -0.035764     -0.065522
Cr	      8.47577     10.47206     10.62659         0.088516      0.003050      0.031107
Cr	      6.38652      8.39059     10.62018        -0.001785     -0.048411      0.018815
Cr	      2.12565      4.21815      2.19214        -0.229611      0.189954     -0.013133
Cr	      6.32209      4.17498      6.37283        -0.045938      0.027448      0.052890
Cr	      6.38898      6.29485      8.46215         0.180708     -0.147891      0.009221
O	      2.21542      2.13657      2.15894         0.061325      0.028712     -0.006335
O	      4.20153      4.22005      1.99732        -0.005407     -0.000361      0.008575
O	      4.31964      2.02133      4.12852         0.039286     -0.053447      0.166669
O	      6.43666      4.12850      4.29725        -0.009302      0.012127     -0.003264
O	      6.34284      2.09117      6.25201         0.014113      0.014328     -0.033516
O	      8.49579      4.20668      6.31620        -0.024282      0.000741      0.003581
O	      2.12214      4.20789      4.11967        -0.007416     -0.001613     -0.032916
O	      4.24119      6.31676      4.25679         0.022355     -0.017381      0.036783
O	      4.35089      4.23490      6.36750         0.009555     -0.005966      0.007658
O	      6.30875      6.21200      6.47311        -0.000562     -0.018895     -0.004652
O	      6.43873      4.27419      8.37838        -0.011537     -0.017976     -0.035645
O	      8.33494      6.22316      8.47810         0.038932      0.024359     -0.047689
O	      2.06785      6.29069      6.46085        -0.035623      0.010925      0.066707
O	      4.27859      8.47307      6.48315        -0.002767      0.055720     -0.057915
O	      4.24305      6.33123      8.55116         0.028238      0.003577      0.058637
O	      6.28330      8.36771      8.57501        -0.023390     -0.019413      0.031170
O	      6.25863      6.36028     10.61363        -0.012700      0.008651      0.003811
O	      8.37154      8.50616     10.57170        -0.034058      0.005983     -0.006792
