# total energy = -91.53835704 eV
 
CRYSTAL
PRIMVEC
2.151314 4.398788 2.123361 
4.228302 -2.167562 -2.111429 
0.005766 4.420921 -4.295807 
PRIMCOORD
16 1
Li	      2.21798      2.39922     -0.09534        -0.038019      0.225498     -0.198634
Li	      2.26517      0.24631     -2.17713        -0.463554      0.210542     -0.019473
Li	      4.39838      2.34679     -2.17602        -0.147567      0.180023     -0.015848
Li	      2.28250      4.48789     -2.16448         0.151954     -0.493250     -0.030604
Mn	      0.10127      0.19196      0.03021         1.349828     -2.033474     -3.617248
Mn	      2.19519      2.30955     -4.41617         0.012949      1.440725      2.348781
Ni	      0.02107      2.26425     -2.18477         1.455258     -0.275210     -0.027316
Ni	      4.39852      4.62903     -4.46376        -0.277252     -0.353741      0.729852
O	      4.43923      4.80917     -2.27746        -0.788821     -0.206763     -0.480072
O	      4.29944      2.35863     -4.53337        -0.682115      0.509758      1.656758
O	      4.53455      2.24493      0.09838        -0.466568      0.181132     -0.721822
O	      4.44744     -0.19775     -2.17954        -0.386861      2.285163      0.476152
O	      2.17657      4.60691      0.12843        -0.427105     -0.103205      0.176484
O	      2.22769      2.31284     -2.37183        -0.005414      0.275387     -0.993999
O	      2.32531      7.02520     -2.24021         0.382129     -1.065067      0.114195
O	      2.12038      4.43684     -4.45653         0.331158     -0.777517      0.602793
