# total energy = -219.38511807 eV
 
CRYSTAL
PRIMVEC
0.077764 6.454455 6.240840 
6.305802 0.123526 6.194227 
4.261237 4.329743 0.026378 
PRIMCOORD
36 1
Li	      6.47378      0.33295      6.21753        -0.030938     -0.076569      0.027231
Li	      8.23493      2.16736      6.28510         0.083780      0.005568      0.052527
Li	     10.48232      6.60457      8.20136         0.052607     -0.012629      0.127027
Li	      8.32110      4.67760      8.25843         0.018978     -0.093760     -0.034685
Li	      4.37925      2.33293      6.31786        -0.099027      0.035642     -0.101611
Li	      6.27989      4.19826      6.33400        -0.037819      0.062411     -0.014856
Li	      8.43908      6.52382     10.22299        -0.006900     -0.057844      0.056575
Li	      2.18320      4.39887      6.15793        -0.042796      0.012332     -0.124434
Li	      6.58244      6.40555      8.26146        -0.186167      0.000227     -0.040663
Sc	      4.36854      8.76136      8.20458        -0.055313      0.079997      0.052462
Sc	      4.16719      6.43090      6.24816         0.060699      0.078007     -0.095579
V	      8.56222      4.32191      4.40094         0.049964      0.157383     -0.273730
V	      6.36913      6.58610      4.22446         0.015709     -0.050279     -0.098927
Co	      2.14131      0.05950      2.09438        -0.020440      0.067224     -0.013376
Co	      6.34700      4.44071     10.33927         0.130126     -0.028426      0.084291
Cu	      6.34324      2.27832      4.22780        -0.038660     -0.029289     -0.090532
Cu	      4.22392      4.40059      4.13683        -0.076351      0.025787     -0.069326
Cu	      8.55538      8.54243      8.27551        -0.050067      0.269197     -0.052351
O	      8.47471      6.62334      8.31207        -0.053630      0.013185     -0.066407
O	      2.18321      2.03974      2.21017         0.020320     -0.100122     -0.101244
O	      4.43706      4.34712      2.22450         0.085176     -0.052164     -0.255441
O	      4.14984      2.00061      4.09886         0.064806     -0.246642     -0.014879
O	      6.55697      4.48322      4.05105         0.167139      0.029756     -0.056836
O	      6.32577      2.25771      6.08617        -0.014234      0.038625      0.119105
O	      8.43183      4.42759      6.09134         0.009769      0.016516      0.446582
O	      2.03002      4.18424      4.07580        -0.204680      0.147894     -0.051136
O	      4.38045      6.69227      4.16612        -0.070679      0.081937     -0.006053
O	      4.21340      4.39755      6.01495         0.024103     -0.164863      0.428005
O	      6.34623      6.45726      6.01518         0.027513      0.005981      0.157198
O	      6.24847      4.41754      8.43110        -0.014822     -0.001202     -0.064750
O	      2.16509      6.46316      6.37472         0.030342      0.036567      0.085624
O	      4.34551      8.59588      6.20222         0.042020     -0.071379     -0.017338
O	      4.19109      6.53203      8.34671         0.027992     -0.035159     -0.036602
O	      6.48766      8.85817      8.47079         0.052330      0.030864      0.018015
O	      6.19172      6.45369     10.34053         0.124572     -0.009369      0.065391
O	      8.62476      8.94097     10.47296        -0.085423     -0.165402     -0.039279
