# total energy = -226.98009468 eV
 
CRYSTAL
PRIMVEC
0.031384 6.288480 6.356993 
6.313588 0.050253 6.338088 
4.253120 4.223761 -0.010026 
PRIMCOORD
36 1
Li	     10.50017     10.42542     12.62095         0.023081     -0.016678     -0.072944
Li	      2.40304      8.46530      6.19639         0.071953     -0.086709     -0.121003
Li	      4.24620      8.43444      8.22264         0.020461      0.013584     -0.027023
Li	      6.42750      8.28040     10.62306         0.043407     -0.026613     -0.042007
Li	      8.48088      4.31512      8.43470         0.012024     -0.044146      0.068460
Li	      4.19498      8.52279      4.43511        -0.007400      0.025065     -0.074099
Li	      8.35314      6.34378     10.61371        -0.132822      0.103892      0.074361
Li	      6.15559      8.39378      6.30669         0.002838      0.046191     -0.028264
Li	      4.24510      6.56791      6.29763        -0.089373      0.084400     -0.021288
Sc	      6.44122      4.13457      6.33490        -0.100606      0.119661     -0.214937
Sc	      8.51118      8.41175      8.55836        -0.084056      0.286755      0.517946
V	      2.12595      6.26617      8.21694         0.005949     -0.060569      0.210402
V	      2.08014      2.23154      4.23531        -0.053653     -0.036385     -0.159724
Co	      4.26645      4.19999      4.28779         0.009262      0.005939     -0.132857
Co	      4.29707      6.33848     10.61454         0.317067     -0.500718     -0.215887
Co	      4.29015      6.28442      2.14801         0.057546     -0.101905      0.167319
Co	      8.52535      6.28944      6.35672        -0.222769      0.142362      0.037263
Co	      6.36193      6.35141      8.47219        -0.181339     -0.050996      0.364264
O	      4.27776      8.44243      6.33857        -0.009095     -0.019881      0.042577
O	      1.97398      1.96158      2.24518         0.004241      0.105318     -0.129951
O	      4.45893      4.35121      2.19753        -0.034483      0.085093     -0.078775
O	      4.11572      2.08287      4.24642         0.079574      0.512299      1.328217
O	      6.41955      4.38406      4.22530        -0.427203      0.131786      0.108618
O	      6.29065      2.09521      6.53163        -1.103130     -0.216815     -0.079571
O	      8.46677      4.30632      6.38645         0.253404      1.096656      0.210501
O	      2.19603      4.01190      4.20563        -0.114994      0.022371     -0.002262
O	      4.38571      6.25438      4.09927        -0.071751      0.163483     -0.039744
O	      4.28968      4.11322      6.35633         0.020228     -0.967444      0.086806
O	      6.39023      6.29767      6.30590         0.989566      0.014026      0.150290
O	      6.33293      4.14763      8.42827         0.033694      0.012072     -0.087826
O	      8.55540      6.33927      8.51314         0.182881     -0.205552     -1.161767
O	      2.11415      6.33676      6.51067         0.043215      0.027391     -0.135978
O	      4.00879      6.34035      8.42488        -0.009276      0.036719     -0.179299
O	      6.36423      8.66979      8.45318        -0.029976     -0.088538     -0.052473
O	      6.26109      6.37943     10.39758         0.613946      0.037818     -0.192912
O	      8.43182      8.55519     10.54539        -0.112410     -0.649932     -0.116435
