# total energy = -229.47170164 eV
 
CRYSTAL
PRIMVEC
0.038058 6.261526 6.156717 
6.565569 0.025147 6.171312 
4.398872 4.205942 -0.004404 
PRIMCOORD
36 1
Li	      6.60568      6.29242     12.31562        -0.014772     -0.013399      0.084106
Li	      8.65034      2.21297      6.18120        -0.014766      0.023845      0.042164
Li	      8.84358     10.38945     10.23700         0.002373      0.006271      0.023081
Li	      6.57100      2.10765      8.20874        -0.004111     -0.055564      0.000840
Li	      6.43926      6.22374      4.12908        -0.041609     -0.028897     -0.014460
Li	      6.69665      4.18124      6.17508         0.099547      0.018983     -0.010629
Li	      2.33987      6.28820      4.02639         0.041728      0.008396      0.000824
Li	      4.43293      6.24064      6.12538        -0.013955     -0.010557     -0.009678
Li	      4.52959      4.30240      8.19569         0.070432      0.051504     -0.032057
Sc	      6.80545      8.34651     10.27997         0.034732      0.037284      0.020844
Sc	      4.44975      2.10903      6.16348         0.006253     -0.028311      0.013947
Ti	      4.26968      2.00701      2.05224        -0.252643     -0.149995     -0.007295
Mn	      2.23382      4.22496      2.07310         0.154071     -0.075516      0.045968
V	      2.19747      4.24141      6.08951        -0.039578      0.016571     -0.211651
Fe	     10.85827      8.31154     10.28977         0.083042      0.127835      0.042998
Cu	      6.59862      4.23039      2.09051        -0.052274     -0.015212     -0.098997
Cu	      4.48452      4.33515      4.12242         0.071146      0.022950     -0.018395
Cu	      6.60791      6.24773      8.23678        -0.058610      0.015096     -0.122554
O	      4.41424      6.33306      4.11992        -0.044644     -0.048845     -0.005901
O	      2.34700      2.27771      2.04159         0.096781     -0.127475      0.028071
O	      4.23937      4.12902      2.13401        -0.236170      0.006920     -0.098124
O	      4.50548      2.18742      4.01336         0.050880     -0.171471     -0.071878
O	      6.69477      4.18598      4.00652        -0.002186      0.021917      0.145700
O	      6.52307      2.13825      6.11574         0.028677      0.004690     -0.088667
O	      8.75579      4.24995      6.35014         0.027670      0.003532     -0.070633
O	      2.00730      4.18223      4.12937        -0.069594      0.012461      0.087751
O	      4.19891      4.21053      6.10859         0.003730      0.051547      0.168174
O	      6.67203      6.48476      6.21421        -0.068687     -0.041003      0.037830
O	      6.78543      4.25709      8.27263        -0.206530      0.000472     -0.061799
O	      8.89460      6.15767      8.20960         0.092908      0.156533      0.032054
O	      2.14005      6.05462      6.30395        -0.001780      0.098368     -0.014783
O	      4.53676      8.37949      6.20783        -0.016837     -0.033429      0.005218
O	      4.26824      6.40612      8.18367         0.265973      0.156999      0.012121
O	      6.41175      8.27633      8.14561         0.127088     -0.023441      0.062247
O	      6.53032      6.23217     10.21001        -0.013045     -0.019074      0.051120
O	      8.87163      8.35437     10.24003        -0.105241      0.000015      0.032440
