# total energy = -224.88685789 eV
 
CRYSTAL
PRIMVEC
0.040018 6.403259 6.304015 
6.385983 -0.003761 6.348028 
4.244987 4.286304 0.009881 
PRIMCOORD
36 1
Li	      6.30164      0.10740      6.34146        -0.000700      0.039014      0.018122
Li	      4.24161      6.41064      2.19386         0.008869      0.016712      0.006908
Li	      2.17124      4.29579      2.32998         0.031982      0.000719      0.020063
Li	      1.98688      2.29100      4.18965         0.000445     -0.005947     -0.023953
Li	      4.10232      4.44898      4.38474         0.013490     -0.007829     -0.062383
Li	      4.43936      2.23911      6.24379        -0.075517      0.014088      0.008486
Li	      6.19549      4.15778      6.27614         0.028982     -0.028652     -0.040967
Li	      4.41486      8.38436      4.29802        -0.033055      0.008944      0.025689
Li	      4.25190      4.26137      8.31192        -0.032065     -0.085105      0.007318
Sc	      8.43465      2.18645      6.27935        -0.007506      0.045941      0.031330
Sc	      4.29994      8.54743      8.42190        -0.028134      0.044732      0.028540
Ti	      6.24963      4.29217      2.15180        -0.332962      0.065727      0.068956
Mn	      4.32090      6.39985     10.54302         0.003474      0.011071     -0.007106
V	      6.55624      6.13116      8.37629         0.150876      0.150760     -0.006024
Ni	      6.37453      2.15439      4.27911        -0.001170     -0.033092     -0.057359
Ni	      2.24473      6.30494      4.19794        -0.144301      0.136265      0.032290
Ni	      2.22069      4.25810      6.24970        -0.039560     -0.026511      0.037918
Ni	      4.29585      6.32976      6.21871         0.061901      0.056240      0.074901
O	      2.17163      1.97806      2.07942         0.023311     -0.059481      0.010721
O	      4.40649      4.23096      2.18156         0.300969      0.038964     -0.018166
O	      4.29700      1.92006      4.21548        -0.036925     -0.111452     -0.014851
O	      6.58161      4.26220      4.10201         0.053190      0.051427     -0.132499
O	      6.42659      2.11927      6.32500         0.029465      0.018870      0.084355
O	      8.56469      4.23420      6.13018        -0.006466     -0.009533     -0.116137
O	      2.13281      4.31370      4.24813        -0.061407     -0.107979     -0.110434
O	      4.20999      6.44139      4.20964         0.109465      0.042635     -0.079977
O	      4.24496      4.32640      6.32829         0.110629     -0.136327      0.051121
O	      6.32634      6.49436      6.63288         0.098562     -0.142717      0.007550
O	      6.46206      4.43491      8.39915        -0.018650     -0.247453     -0.014785
O	      8.30850      6.41034      8.50523        -0.139274     -0.062952     -0.061396
O	      2.19202      6.40381      6.42443        -0.094921      0.135635      0.148827
O	      4.27590      8.47764      6.38341        -0.077217      0.031066      0.002964
O	      4.37030      6.41814      8.52746         0.049864     -0.020334      0.133424
O	      6.40199      8.71081      8.44379        -0.033245      0.163517     -0.011014
O	      6.30470      6.47140     10.31254        -0.032566     -0.080783     -0.042420
O	      8.50425      8.66713     10.51179         0.120168      0.093824     -0.000016
