# total energy = -90.50250266 eV
 
CRYSTAL
PRIMVEC
2.043398 3.930685 1.972848 
3.993515 -1.922443 -1.965924 
0.025576 3.926160 -3.962218 
PRIMCOORD
16 1
Li	      1.91629      1.90828     -0.00160        -0.115192     -0.383783      0.624975
Li	      3.82884      1.91280     -1.90576         0.781963     -0.184715     -0.017344
Li	      0.02286      1.90674     -1.91698        -0.621667     -0.457560      0.435229
Li	      3.94596      3.78790     -3.80697        -0.030024      0.354877     -0.137886
Mn	      5.80731      5.68206     -3.79685         2.769697      1.991453     -2.133305
Mn	      1.93284      0.05044     -1.90422        -1.412876     -3.420567      0.655516
Ni	      1.92722      3.78990     -1.86268        -1.475748      0.635102     -0.123249
Ni	      1.94352      1.88221     -3.77293        -0.471110     -1.019778     -2.249982
O	      3.78552      3.79319     -1.76687         2.129100      0.729100     -0.796124
O	      3.90129      1.93246     -3.92539         0.384653     -0.767988     -0.093437
O	      4.01380      1.99351      0.01736        -0.817312     -0.755165      0.829107
O	      3.69421     -0.05703     -1.89552         2.198689     -1.193226      0.095256
O	      2.08446      3.76498      0.06192        -0.947994      0.603387      2.134679
O	      1.96953      1.81356     -1.89447        -0.738051      1.182619      1.486455
O	      1.98599      5.74576     -1.92947        -0.964857      1.280833      0.325388
O	      1.82542      3.79322     -3.85346        -0.669270      1.405410     -1.035277
