# total energy = -256.16188882 eV
 
CRYSTAL
PRIMVEC
0.033882 6.266061 6.408338 
6.455019 -0.031712 6.473267 
4.287542 4.204916 -0.005171 
PRIMCOORD
36 1
Li	      6.51071      6.29141     12.78893         0.023507      0.062969     -0.082868
Li	      6.67457     10.32604      8.70509        -0.063794      0.095193      0.105849
Li	      4.30668      6.32528     10.54914         0.045114      0.022746      0.057138
Li	      6.41723      8.38279     10.60001        -0.051088      0.014172     -0.031835
Li	      6.56793      6.20210      4.35672         0.030232      0.000473      0.022656
Li	      4.24818      2.09156      6.33029        -0.030377     -0.033160     -0.037719
Li	      4.33553      6.23551      6.60089         0.018254     -0.031364      0.042752
Li	      8.40014      8.56476      8.58946        -0.031727     -0.020180      0.033493
Li	      6.34557      6.37284      8.56808         0.004746     -0.015098      0.005904
Sc	      4.31231      6.21408      2.10569        -0.015964     -0.028285     -0.050137
Sc	      6.40305      4.30322      6.35718        -0.080885      0.109637     -0.053869
Ti	      2.23126      8.33776      6.38792         0.026640      0.004238      0.011045
Ti	      8.58316      4.13454      8.54099         0.027509      0.006416     -0.130408
Ti	      4.29599      8.43288      4.37591        -0.074593      0.240823      0.001233
Cr	      4.40175      8.27051      8.61565         0.050328     -0.028235      0.006424
Cr	      4.32275      4.13269      4.33145         0.058642     -0.028610      0.037336
Cr	      8.59785      6.26322     10.73855        -0.022896     -0.010637     -0.022519
Fe	      6.50620      8.30104      6.51762        -0.014799      0.146171     -0.004627
O	      2.17430      2.09780      2.08691        -0.014571      0.011676     -0.048351
O	      4.15911      4.12441      2.23956        -0.072592      0.035715      0.009449
O	      4.29700      2.16838      4.18791        -0.015786      0.002057      0.029029
O	      6.29975      4.21108      4.33423        -0.001131     -0.045071      0.047751
O	      6.62451      2.10836      6.54308         0.087480     -0.083056     -0.010421
O	      8.57026      4.12884      6.53974         0.014800     -0.045435      0.038366
O	      2.17634      4.24400      4.21776        -0.023099      0.017810     -0.044191
O	      4.22192      6.31712      4.23143        -0.085021     -0.022849      0.016543
O	      4.34895      4.15743      6.32992         0.110892      0.025778     -0.016508
O	      6.49393      6.29498      6.40535        -0.036637     -0.214901      0.041406
O	      6.59505      4.07523      8.65875         0.173636     -0.014940      0.034401
O	      8.68986      6.11240      8.69060         0.048338     -0.045641      0.097911
O	      2.15869      6.34152      6.27248         0.016654      0.110106     -0.131107
O	      4.24726      8.37918      6.44957        -0.173277      0.020493     -0.070694
O	      4.32862      6.33461      8.60217         0.004841     -0.005741     -0.012939
O	      6.36999      8.37775      8.58537        -0.042250      0.038349      0.096021
O	      6.57558      6.07403     10.75858         0.063523     -0.249471     -0.012249
O	      8.71695      8.28295     10.80007         0.045348     -0.042148      0.025734
