# total energy = -245.86823721 eV
 
CRYSTAL
PRIMVEC
0.003701 6.438097 6.593196 
6.195172 0.032751 6.562675 
4.150048 4.292611 0.002340 
PRIMCOORD
36 1
Li	      2.08387      2.18291      0.04908         0.021397     -0.022614      0.039549
Li	      6.29678     10.51409      8.89359        -0.066754      0.052592      0.004517
Li	      4.03013      0.11589      4.35634         0.029115      0.012404      0.049183
Li	      6.26179      8.72652     10.73695        -0.006047     -0.001832      0.025823
Li	      6.29131      6.35371      4.43522        -0.027647     -0.000241      0.032918
Li	      8.20039      6.39000      6.52081         0.007590      0.010395     -0.029220
Li	      6.26851      8.50250      6.82755        -0.033088     -0.032902      0.001328
Li	      8.05286      8.59413      8.77906         0.031586     -0.051186      0.007787
Li	      6.20524      6.64734      8.72503         0.027738     -0.025583      0.003143
Sc	      0.12663      6.45472      6.52782        -0.016833      0.004300      0.037050
Sc	      4.20567      4.21321      4.47635        -0.025457      0.098750     -0.030509
Ti	      6.17892      2.19754      8.71768        -0.041382     -0.032632     -0.071602
Ti	      8.23186      4.33475      8.75491        -0.030530     -0.062523      0.045856
Ti	     10.17498      8.62025     10.97807        -0.083360     -0.024758      0.117123
V	      4.14519      6.42672      6.82426        -0.067201      0.071248     -0.287598
Co	      4.18779      2.08267      2.37616         0.064450     -0.063159      0.048516
Co	      6.27053      4.33558      6.45501         0.032708      0.006177     -0.028221
Cu	      8.15970      6.60618     11.07239        -0.016034      0.070455      0.143804
O	      2.06451      2.34453      2.15044        -0.042090      0.100632     -0.014802
O	      4.12577      4.44377      2.19856        -0.029372      0.026079      0.034023
O	      4.13595      2.21339      4.39585        -0.021275     -0.009022      0.040291
O	      6.21122      4.28713      4.40772         0.023701      0.024527     -0.036381
O	      6.26056      2.15647      6.78871        -0.033133     -0.032406      0.046329
O	      8.34900      4.32546      6.76266        -0.020174     -0.004060      0.032565
O	      2.04988      4.30135      4.10926        -0.001538      0.053571     -0.133765
O	      4.21156      6.50304      4.19670         0.035720      0.001675     -0.115485
O	      4.12761      4.48319      6.52420        -0.020347      0.028515     -0.015417
O	      6.03645      6.37937      6.56743         0.094752      0.042152      0.003153
O	      6.26195      4.21235      8.84010         0.062670     -0.039726     -0.017253
O	      8.41643      6.35440      8.67244         0.031127     -0.000655     -0.025873
O	      2.16748      6.47892      6.65288         0.007309     -0.025778     -0.009953
O	      4.18928      8.50764      6.36830        -0.034585     -0.079763     -0.126835
O	      4.10293      6.47096      8.59170        -0.031992     -0.027581      0.320118
O	      6.11587      8.57493      8.76896         0.017492     -0.006671      0.020714
O	      6.13713      6.23723     11.03523         0.002331     -0.010891     -0.038137
O	      8.36512      8.64107     10.87659         0.159153     -0.049492     -0.072740
