# total energy = -240.75155366 eV
 
CRYSTAL
PRIMVEC
0.019454 6.339730 6.303300 
6.382941 0.018182 6.304155 
4.266736 4.238527 0.000743 
PRIMCOORD
36 1
Li	      2.20333      8.44374      6.25283        -0.003094      0.061242     -0.037345
Li	      4.30374      6.48564     10.38346        -0.007173     -0.054396      0.049934
Li	     10.60193      6.34286      8.37349        -0.026778      0.004651      0.012478
Li	      2.23916      2.20018      4.31138         0.044022      0.003572     -0.053774
Li	      4.22230      4.12390      4.16733         0.031348      0.055331     -0.012166
Li	      4.19686      2.15912      6.13669         0.036250     -0.007606     -0.025065
Li	      4.28875      8.42240      4.34927        -0.025438     -0.027200      0.036794
Li	      6.30769      8.27671      6.25048         0.008826      0.054994     -0.051521
Li	      4.35126      6.53239      6.29791        -0.041461     -0.055813     -0.014457
Sc	      6.37359      6.33358     12.55012         0.002544      0.010926     -0.062099
Sc	      6.37882      4.29564      6.16063         0.004047     -0.159205     -0.089256
Ti	      2.09726      0.18414      2.14333        -0.030483      0.134479      0.231443
Ti	      8.35153      4.18239      8.47760        -0.220662     -0.001678      0.085243
Ti	      8.37246      8.44948      8.37785        -0.155227      0.101909     -0.178895
V	      2.28323      6.33050      4.25851        -0.004807     -0.017388      0.116173
Cu	      6.33310      2.10697      4.23707         0.055275      0.062575      0.094874
Cu	      6.34393      6.33160      8.30996        -0.005599     -0.080804     -0.011602
Ni	      4.32377      8.45398      8.41152         0.024456      0.020853     -0.027063
O	      2.16921      2.17381      2.13730        -0.062577      0.026993      0.012326
O	      4.37795      4.26137      2.09271         0.057066      0.061069     -0.048703
O	      4.39796      2.09644      4.10491        -0.149371      0.021249      0.146624
O	      6.38220      4.40535      4.05511         0.070793      0.125027     -0.217944
O	      6.39513      2.15057      6.21903        -0.005820      0.005320      0.163823
O	      8.51261      4.27664      6.51264        -0.050141      0.018662      0.128596
O	      2.19951      4.27993      4.06538        -0.049390     -0.022207     -0.179965
O	      4.03209      6.34494      4.30328         0.057029      0.010973     -0.009986
O	      4.31843      4.16086      6.52902         0.029315     -0.003494      0.289130
O	      6.39170      6.30886      6.26175        -0.012371      0.023723      0.145220
O	      6.48510      4.12073      8.39861         0.195858      0.023377     -0.019989
O	      8.60145      6.36322      8.55435         0.006093     -0.117363     -0.009543
O	      2.10479      6.40855      6.39059        -0.043800     -0.009339     -0.003406
O	      4.28366      8.51561      6.39965        -0.003869      0.024559     -0.121601
O	      4.10190      6.21624      8.43146        -0.075257     -0.139831     -0.004809
O	      6.46918      8.63895      8.43577         0.275639     -0.014410     -0.118362
O	      6.64639      6.21391     10.51984         0.013710     -0.089259     -0.113267
O	      8.48849      8.36512     10.38964         0.061048     -0.051490     -0.101840
