# total energy = -240.82576850 eV
 
CRYSTAL
PRIMVEC
0.000332 6.460863 6.302300 
6.247284 0.017048 6.285582 
4.175388 4.306479 0.000910 
PRIMCOORD
36 1
Li	      0.11971      6.39421      6.30937         0.033135     -0.014482     -0.001034
Li	      2.01920      0.04790      2.04798         0.022587      0.018970     -0.026962
Li	      6.26106      8.52794     10.45988         0.021006     -0.019734      0.021866
Li	      2.07244      4.18646      2.21430        -0.001162     -0.056634     -0.028834
Li	      2.04704      2.26931      4.06995         0.010642      0.019262     -0.042813
Li	      0.16640      4.42045      4.17555        -0.044044      0.055370     -0.046302
Li	      1.91105      6.31344      4.26405        -0.077106     -0.070686     -0.026700
Li	      1.98887      4.40794      6.24910         0.015575      0.056776      0.008302
Li	      6.24726      6.51539      8.49906         0.028466      0.028702      0.004078
Sc	      4.06321      4.30671      4.07406         0.007444      0.013514     -0.075291
Sc	      8.19378      8.63515      8.51489        -0.020679      0.015455      0.098417
Ti	      8.33802      6.38170      6.34857         0.046763     -0.146588      0.239531
Ti	      6.26642      4.32011      6.30389         0.036058     -0.012361      0.066325
Ti	      4.05311      6.64410      6.24099        -0.369944      0.251424     -0.142310
V	      4.26085      6.49268     10.46989        -0.036137     -0.096613     -0.062960
Ni	      2.08102      8.58156      6.30443        -0.067461      0.023762     -0.139556
Ni	      4.20375      8.65520      8.38653        -0.034513      0.051537      0.029474
Ni	      0.09504      2.12920      2.14194        -0.019288     -0.048527      0.120299
O	      2.12058      2.15688      1.99549         0.019034     -0.005875      0.163534
O	      4.19364      4.33195      2.08292        -0.016461     -0.040273     -0.003807
O	      4.16030      2.12463      4.29664        -0.010163      0.046886      0.137547
O	      6.30149      4.30737      4.36657        -0.019009      0.009822      0.156615
O	      6.16667      2.27585      6.30835        -0.214301      0.112619     -0.082021
O	      8.28819      4.43409      6.26966        -0.109431      0.256428      0.068209
O	      2.11956      4.31373      4.21548         0.043301     -0.031607      0.017647
O	      4.22058      6.40891      4.34276        -0.005479     -0.018846      0.201656
O	      4.25179      4.26492      6.29206         0.085932     -0.023351      0.008475
O	      6.34375      6.30158      6.33273         0.038985     -0.110725      0.005880
O	      6.21672      4.22154      8.23763         0.014935      0.101897     -0.128630
O	      8.38036      6.53087      8.22819        -0.096012     -0.020440     -0.209243
O	      2.21502      6.50031      6.26661         0.427648     -0.057003     -0.026635
O	      4.17072      8.49226      6.31543         0.107662     -0.308920     -0.151075
O	      4.20101      6.43701      8.28973        -0.011580     -0.034211     -0.087083
O	      6.23253      8.62000      8.37711         0.118975     -0.012954     -0.013668
O	      6.15350      6.48472     10.51086         0.058307      0.012128      0.007160
O	      8.30978      8.78734     10.54119         0.016315      0.055279     -0.060091
