# total energy = -240.60070263 eV
 
CRYSTAL
PRIMVEC
0.018789 6.227038 6.438974 
6.453239 0.004927 6.452830 
4.314012 4.172183 -0.008563 
PRIMCOORD
36 1
Li	      8.45301      2.17499      6.36094         0.076716     -0.017788      0.018737
Li	      4.34581      8.30181      8.60115        -0.018749     -0.017343      0.013183
Li	      6.68037      8.26404     10.85949         0.011498      0.004392      0.075068
Li	      6.31463      2.11459      8.44248        -0.015937     -0.011850      0.024333
Li	      8.53428      4.31724      8.42362         0.000048     -0.001190     -0.053971
Li	      8.70937      6.22282      6.61002         0.036818      0.008323     -0.066261
Li	      6.52539      4.01720      6.61292        -0.070311     -0.010982      0.028013
Li	      8.53442      6.38452     10.55215         0.004529      0.040470     -0.033920
Li	      8.63099      8.20789      8.63516        -0.001268      0.097619      0.015388
Sc	      4.25393      4.08455      4.24461         0.021822     -0.051847     -0.041574
Sc	      6.38710      4.20706     10.60012        -0.021586      0.081436      0.046915
Sc	      4.33087      6.25831      6.54877        -0.002113      0.004287      0.008295
Mn	      6.40445      0.09247      6.47344        -0.063417      0.025433      0.023029
V	      6.45446      4.16724      2.18627         0.008710      0.017223     -0.025556
V	      6.47880      6.18115      4.26381         0.065022      0.018474     -0.028366
Cr	      2.17156      4.17004      6.44385        -0.027030     -0.038681      0.034595
Co	      8.64315      4.16992      4.32720         0.000134     -0.014266      0.068279
Cu	      6.64919      6.25370      8.57897        -0.146983      0.056373      0.057561
O	      8.55280      6.25915      8.61099         0.114354      0.026873     -0.038924
O	      2.13535      1.85013      2.24920        -0.020702     -0.101626      0.026828
O	      4.43876      4.13739      2.06900         0.006690      0.002300      0.102007
O	      4.13828      2.04361      4.25658        -0.047316      0.025709     -0.034376
O	      6.38128      4.08607      4.18115         0.102443      0.049858     -0.051258
O	      6.46053      1.94582      6.48139         0.040720     -0.055571      0.063161
O	      8.84492      4.15983      6.43092         0.094267      0.015936      0.068106
O	      2.16480      4.10432      4.38307        -0.015442      0.039021      0.057586
O	      4.40778      6.23720      4.36120        -0.034156      0.029110     -0.042866
O	      4.19434      4.21385      6.34082        -0.034279      0.024934     -0.044493
O	      6.39209      6.32745      6.29232        -0.049131      0.009976     -0.083433
O	      6.50619      4.26992      8.58154        -0.022896      0.013853      0.026367
O	      2.12710      6.20810      6.59029        -0.010638     -0.110606      0.028033
O	      4.45614      8.40215      6.41319         0.049741     -0.006812     -0.058497
O	      4.21308      6.25332      8.60001        -0.056266     -0.025042     -0.108890
O	      6.48741      8.40738      8.45823         0.002683     -0.001879     -0.068056
O	      6.54062      6.27527     10.99479        -0.124698     -0.076934      0.013008
O	      8.70340      8.37800     10.75394         0.146724     -0.049182     -0.018053
