# total energy = -93.09787775 eV
 
CRYSTAL
PRIMVEC
2.139182 4.114936 2.065326 
4.180711 -2.012558 -2.058077 
0.026774 4.110199 -4.147947 
PRIMCOORD
16 1
Li	      2.10016      2.09137     -0.00175         0.003239      0.026758     -0.059585
Li	      4.19621      2.09633     -2.08861        -0.083831      0.010927      0.005930
Li	      0.02506      2.08969     -2.10091         0.057807      0.045536     -0.023101
Li	      4.32456      4.15133     -4.17224         0.038582     -0.008668      0.011997
Mn	      0.01784      0.01466     -0.02045        -0.347615     -0.322704      0.248900
Mn	      2.11829      0.05528     -2.08692         0.118592      0.301101     -0.066153
Ni	      2.11213      4.15353     -2.04139         0.064980     -0.067217      0.006650
Ni	      2.12999      2.06281     -4.13493         0.071916      0.066485      0.151691
O	      4.14873      4.15714     -1.93639        -0.046439     -0.206049      0.145967
O	      4.27561      2.11787     -4.30202        -0.023730      0.081591     -0.033041
O	      4.39891      2.18479      0.01902         0.075631      0.120768     -0.211532
O	      4.04866     -0.06251     -2.07739        -0.174685      0.187760     -0.007258
O	      2.28446      4.12622      0.06787         0.129943     -0.053410     -0.094068
O	      2.15850      1.98756     -2.07624         0.047915     -0.185237      0.010698
O	      2.17654      6.29705     -2.11460         0.009465     -0.011683     -0.050905
O	      2.00056      4.15717     -4.22318         0.058231      0.014042     -0.036190
