# total energy = -235.66256340 eV
 
CRYSTAL
PRIMVEC
-0.003787 6.425251 6.320902 
6.365572 0.023396 6.293393 
4.250928 4.272519 0.008561 
PRIMCOORD
36 1
Li	      8.37751      4.14042      4.27813         0.049468      0.009871     -0.014146
Li	      6.54296      8.69073     10.53024         0.099998     -0.059772      0.015810
Li	      6.23319      6.43432      4.30409         0.023382      0.005497     -0.019819
Li	      4.26507      4.44588      4.30201         0.058484     -0.063016     -0.074921
Li	      6.23914      4.42880      6.13147        -0.021093      0.027693      0.014082
Li	      2.22816      6.39415      4.28127        -0.029448      0.029566      0.014303
Li	      2.22124      4.27336      6.14233        -0.049245     -0.009170      0.008820
Li	      4.32021      6.20870      6.17983        -0.004747      0.049322      0.008799
Li	      4.28335      4.24564      8.37426        -0.033541      0.049604     -0.045088
Sc	      6.42591      4.21802      2.24540         0.092185     -0.085145      0.075509
Sc	      4.21376      2.31188      6.17765        -0.110695      0.076769      0.007226
Sc	      6.36806      6.36158      8.38847         0.027569     -0.025037     -0.041561
V	      6.39938      6.43205     12.48410         0.000587     -0.041145     -0.138344
V	      4.26631      2.13261      2.25692         0.038038     -0.039539     -0.065744
Cr	      8.49410      8.59305     12.60728         0.048664     -0.040580      0.014068
Fe	     10.53333      6.58165      8.50521         0.034725      0.001121     -0.104226
Cu	      2.09154      4.28487      2.19268        -0.039080      0.172273     -0.066365
Cu	      4.24973      8.45068      4.25727         0.026510      0.064417      0.040904
O	      1.93100      4.28819      4.10208        -0.053072     -0.018064      0.177774
O	      2.14219      2.07480      2.04188         0.010165     -0.134705     -0.020075
O	      4.29738      4.22095      2.00161         0.114205      0.034950      0.015433
O	      4.18137      2.20741      4.03914        -0.014061     -0.028142     -0.028165
O	      6.41015      4.23802      4.18582        -0.013018      0.012536     -0.064469
O	      6.41828      2.00206      6.37895         0.069514      0.064419      0.035496
O	      8.65978      4.24377      6.40640        -0.087423     -0.058787     -0.144268
O	      4.23661      6.41069      4.09496        -0.004828     -0.074702      0.211635
O	      4.21045      4.25944      6.25230        -0.022522     -0.141943      0.015072
O	      6.44038      6.42352      6.36783         0.042928      0.066114      0.018849
O	      6.33075      4.26014      8.26919        -0.140255      0.032258     -0.158415
O	      8.51830      6.48721      8.33523         0.024150      0.122576     -0.007724
O	      1.98657      6.52452      6.34070         0.094978      0.036737      0.071055
O	      4.14251      8.71292      6.55731         0.002728     -0.063854      0.153347
O	      4.27432      6.58217      8.40961        -0.050845      0.032063      0.051775
O	      6.22540      8.52238      8.47137        -0.024642      0.038511      0.043182
O	      6.36035      6.44146     10.67434        -0.023652     -0.013565      0.037180
O	      8.63557      8.58924     10.64841        -0.136108     -0.029127     -0.036990
