# total energy = -92.88484473 eV
 
CRYSTAL
PRIMVEC
2.160468 4.155881 2.085876 
4.222310 -2.032583 -2.078555 
0.027041 4.151096 -4.189220 
PRIMCOORD
16 1
Li	      2.14216      2.13319     -0.00179         0.025187      0.089148     -0.140758
Li	      4.28013      2.13826     -2.13039        -0.202708      0.044417      0.002945
Li	      0.02555      2.13149     -2.14292         0.168589      0.145116     -0.102593
Li	      4.41105      4.23436     -4.25568         0.062149     -0.047155      0.033837
Mn	      0.08197      0.07738     -0.06247        -0.972956     -1.038296      0.793770
Mn	      2.16066      0.05639     -2.12867         0.275963      0.834638     -0.181453
Ni	      2.15438      4.23660     -2.08222         0.204468     -0.164985      0.011670
Ni	      2.17259      2.10406     -4.21763         0.084416      0.171556      0.501524
O	      4.23170      4.24027     -1.97512        -0.334059     -0.356075      0.311351
O	      4.36112      2.16023     -4.38806         0.049903      0.258630     -0.001191
O	      4.48688      2.22849      0.01940         0.136357      0.294352     -0.427907
O	      4.12963     -0.06375     -2.11894        -0.433607      0.642864     -0.032846
O	      2.33015      4.20875      0.06922         0.301862     -0.149342     -0.513499
O	      2.20167      2.02731     -2.11776         0.175794     -0.308211     -0.175114
O	      2.22007      6.42299     -2.15689         0.196746     -0.275415     -0.153180
O	      2.04058      4.24031     -4.30765         0.261898     -0.141242      0.073443
