# total energy = -242.26477253 eV
 
CRYSTAL
PRIMVEC
0.013748 6.354070 6.262445 
6.465819 0.035122 6.242708 
4.326510 4.236978 0.008160 
PRIMCOORD
36 1
Li	      4.33598      8.45924      8.34546         0.000382      0.034199     -0.025963
Li	      6.54757      8.40277     10.35359         0.001769     -0.006479     -0.038327
Li	     10.76958      6.41215      8.33922         0.046328      0.032323      0.022003
Li	      8.61660      6.40270      6.29729        -0.035377     -0.020768     -0.031367
Li	      6.37648      4.28117      6.37066        -0.001338      0.031109      0.025851
Li	     10.69695      8.50344     10.40864         0.026491      0.032131     -0.022776
Li	      8.78227      6.49264     10.34808         0.087946     -0.018060      0.073840
Li	      4.39897      6.31567      6.28286         0.007101      0.014152      0.025953
Li	      6.45705      6.35010      8.36931        -0.007419     -0.017129      0.019111
Sc	      6.42741      6.35824      4.20637        -0.038609      0.150630      0.064342
Sc	      4.37920      4.19076      4.21336        -0.127692      0.004226     -0.016895
Sc	      6.43857      8.44879      6.36825        -0.134521     -0.040094     -0.019919
V	      6.45157      0.14673      6.16557         0.022139     -0.275914      0.057880
V	      8.51817      4.41119      8.30473        -0.185326     -0.258254      0.036927
Cr	      2.17597      6.38486      8.32105        -0.125616     -0.075397     -0.023943
Cr	      4.32859      6.38585     10.40326         0.055206      0.066678     -0.028964
Co	      2.23467      8.45287      6.21105         0.074293     -0.010022      0.048145
Cu	      8.66465      8.45942      8.35423        -0.048190     -0.008782     -0.041579
O	      2.19598      2.15505      2.04812        -0.027492     -0.078920     -0.032280
O	      4.33717      4.24247      2.04463         0.052266      0.036928      0.090162
O	      4.23609      2.08573      4.19188         0.008698     -0.045013      0.013048
O	      6.51521      4.26021      4.11269         0.018745     -0.045361     -0.004879
O	      6.55078      1.94659      6.22150         0.014925      0.166603      0.082936
O	      8.75579      4.28179      6.26800        -0.052186     -0.005268     -0.119098
O	      2.24119      4.22752      4.10089         0.057912      0.008252     -0.002307
O	      4.38996      6.24611      4.20123         0.013917     -0.043679     -0.011122
O	      4.28230      4.21780      6.32186         0.086523     -0.034181      0.016082
O	      6.42598      6.44070      6.25719         0.003234     -0.082921     -0.009183
O	      6.72057      4.21743      8.30572         0.247638     -0.026527      0.030371
O	      8.69163      6.20855      8.33323         0.100797      0.278871      0.048037
O	      2.05795      6.35310      6.30834         0.037593      0.097362     -0.006203
O	      4.35330      8.69381      6.25451        -0.031932      0.061334     -0.061871
O	      4.17507      6.35483      8.41785         0.073263      0.011612     -0.020615
O	      6.43804      8.62090      8.35616        -0.146514      0.041028      0.062995
O	      6.31595      6.40550     10.51094        -0.108067     -0.028941     -0.163983
O	      8.67510      8.58826     10.34447         0.033110      0.054275     -0.036409
