# total energy = -240.32723963 eV
 
CRYSTAL
PRIMVEC
0.022680 6.333612 6.436619 
6.362939 0.024598 6.434672 
4.265084 4.244218 -0.006777 
PRIMCOORD
36 1
Li	      4.29662      4.26090      0.10263         0.044931     -0.019657      0.082389
Li	      8.40963      2.23636      6.56242         0.023683      0.013094      0.116759
Li	      6.28461      4.38250      2.20178        -0.056184      0.051549     -0.041168
Li	      8.39336      4.27679      4.35939        -0.012048     -0.010504      0.047928
Li	      4.35317      6.23427      2.16869         0.002750     -0.045773      0.015577
Li	      2.28293      4.08989      2.04828         0.046924     -0.055360     -0.024886
Li	      2.12027      1.99342      4.10659        -0.012072     -0.012483     -0.099194
Li	      4.37843      4.23812      4.08561         0.003085      0.003459     -0.106096
Li	      2.19886      6.37348      4.33180         0.002461     -0.010748     -0.007816
Sc	      4.29911      2.03346      6.32128         0.053424     -0.047127      0.069079
Sc	      8.48349      8.51937      8.66327        -0.034147      0.020609     -0.026897
Sc	      6.40299      6.35959      8.69930         0.038552     -0.023035      0.005447
V	     10.58900      8.47862     10.74500         0.003163      0.018379     -0.103439
V	      2.10408      4.32900      6.28660         0.027800      0.056501     -0.098335
Cr	      6.41682      4.21632      6.35454         0.006995     -0.026052      0.163018
Cr	      4.24754      6.38206      6.38763        -0.095541     -0.023116     -0.012761
Co	      4.16912      2.20886      2.23654        -0.080493     -0.007402      0.104974
Ni	      6.39296      2.15481      4.36255         0.045858     -0.072451     -0.089225
O	      2.30399      2.12848      2.14318         0.171676     -0.056088      0.113473
O	      4.23797      4.08589      2.12527         0.102843     -0.141132      0.074219
O	      4.33435      2.10668      4.27073        -0.181012      0.020518     -0.579136
O	      6.37378      4.18700      4.42222         0.015045      0.100183      0.044329
O	      6.35155      2.22205      6.42594        -0.061807     -0.019235      0.068581
O	      8.36449      4.29742      6.43369        -0.019074      0.054199     -0.061799
O	      2.05624      4.21680      4.50046        -0.010872     -0.010113      0.194719
O	      4.26084      6.49764      4.39577        -0.003336     -0.011203      0.096993
O	      4.20048      4.31025      6.45485         0.009285      0.022876     -0.006911
O	      6.34405      6.35697      6.45872        -0.027198      0.029189     -0.030420
O	      6.30012      4.28598      8.56444        -0.066823      0.034548     -0.021813
O	      8.44433      6.47614      8.47119        -0.040848      0.044890     -0.104719
O	      2.25639      6.18579      6.43219         0.008191     -0.009771     -0.054722
O	      4.39836      8.39442      6.39483        -0.019331      0.066831      0.288558
O	      4.29202      6.41787      8.45416        -0.013906     -0.019289     -0.029211
O	      6.34397      8.45003      8.44123         0.056439      0.089406     -0.016934
O	      6.42990      6.30016     10.71450        -0.001183     -0.040389      0.015228
O	      8.56349      8.49719     10.67927         0.072769      0.034695      0.014210
