# total energy = -250.13241610 eV
 
CRYSTAL
PRIMVEC
0.005620 6.313014 6.368095 
6.373614 0.004416 6.369213 
4.254206 4.214494 -0.002111 
PRIMCOORD
36 1
Li	      2.22202      0.15341      2.08663         0.014310     -0.064037     -0.004625
Li	      4.07242      2.02925      2.19119         0.021943     -0.024633      0.047963
Li	      4.21235      0.08586      4.17878        -0.000916      0.021983      0.042289
Li	      0.07247      2.06659      2.13015         0.072365     -0.001532      0.013236
Li	      2.17939      4.13396      2.04961         0.008405     -0.032746      0.005589
Li	      2.19573      2.07313      4.09541         0.013977      0.006565     -0.104447
Li	      8.45426      6.33399      6.40210         0.013771      0.002654     -0.004217
Li	      8.52272      6.30939     10.57147         0.010928     -0.016517     -0.036550
Li	      4.26920      6.29488      6.42576         0.014601      0.020441      0.015757
Sc	      6.33689      8.39337     10.56813        -0.111718      0.101508      0.070150
Sc	      4.19755      4.27605      4.13203        -0.006354     -0.036560     -0.088348
Sc	      4.28341      8.31048      4.20906         0.050122     -0.053545     -0.087868
V	      6.43138      4.29603      6.36398         0.104443     -0.084220     -0.038967
V	      6.38239      6.31341      8.49581        -0.003998     -0.036491      0.071067
Cr	      2.16687      2.06930      0.08569        -0.174834     -0.032909      0.015412
Cr	      2.13672      4.23709      6.39098        -0.017049      0.012292     -0.015789
Cr	      4.25169      4.20522      8.48134         0.046733     -0.002193      0.065274
Fe	      4.21536      4.23114      0.18044        -0.053968      0.176329     -0.021694
O	      2.14383      2.08734      1.99583        -0.002358      0.025287     -0.055376
O	      4.19440      4.25971      2.08919         0.019324     -0.035479      0.081722
O	      4.32378      2.18213      4.22598         0.034034     -0.037102      0.027025
O	      6.33414      4.18856      4.39734        -0.024168      0.041912     -0.010526
O	      6.49896      2.12147      6.33151         0.056763      0.048798     -0.004121
O	      8.52578      4.10049      6.38361         0.033536      0.069854     -0.066413
O	      2.11692      4.19808      4.39520        -0.016765      0.007461      0.048003
O	      4.25545      6.32409      4.24362         0.016308      0.030750      0.044509
O	      4.20557      4.23927      6.42418        -0.060335     -0.004627      0.038353
O	      6.39523      6.34952      6.48712        -0.052816      0.028564     -0.068806
O	      6.30182      4.21128      8.41954        -0.093205     -0.039654      0.041083
O	      8.36088      6.42413      8.49320        -0.014901     -0.021198     -0.030257
O	      1.98454      6.28602      6.39633         0.020676      0.004736     -0.021895
O	      4.27863      8.50453      6.33169         0.016902     -0.106082      0.042571
O	      4.37455      6.20919      8.50189         0.002122      0.003503     -0.030448
O	      6.48256      8.41397      8.43177         0.008017      0.041400     -0.042702
O	      6.35758      6.30405     10.58851         0.040410     -0.004643      0.030456
O	      8.52470      8.40169     10.58703         0.013695     -0.009868      0.032590
