# total energy = -238.40571164 eV
 
CRYSTAL
PRIMVEC
0.005464 6.349819 6.348674 
6.401009 0.039287 6.314867 
4.303551 4.246544 -0.009874 
PRIMCOORD
36 1
Li	      4.51988      6.42218     10.42234         0.030566      0.049272     -0.010684
Li	      6.32178      2.11960      4.16398        -0.010175     -0.017063     -0.000737
Li	     10.62888      6.48313      8.45105        -0.087591      0.000519     -0.007393
Li	      6.39911      6.40679      4.31644         0.020016     -0.003908      0.012783
Li	      8.42706      6.42333      6.37305        -0.037571      0.004181     -0.030670
Li	      6.37191      4.30505     10.46918         0.001908      0.028377     -0.003905
Li	      6.40404      8.25552      6.40117        -0.060581     -0.032626     -0.009615
Li	      4.45947      6.41510      6.30776        -0.006611      0.032541     -0.003784
Li	      6.35885      6.44743      8.36503        -0.031130      0.008119     -0.019070
Sc	      6.35300      0.12622      6.27320         0.068355      0.003628      0.022854
Sc	      8.56456      8.56452     12.57862         0.051971     -0.062835     -0.074292
Sc	      2.25343      6.32979      8.52457         0.082379      0.081938     -0.016384
Sc	      8.57291      6.38217     10.49645        -0.001714      0.028251      0.074301
Mn	      4.27307      4.20330      4.25317        -0.005842     -0.014407      0.002664
Fe	      8.39880      4.29676      8.45966         0.033857     -0.030843      0.018160
Fe	      6.36371      4.39857      6.28359        -0.008914     -0.231775      0.098331
Co	      4.32248      2.14024      2.13392        -0.022589      0.046886     -0.024530
Co	      8.58352      8.46892      8.42588        -0.003065      0.007370     -0.042823
O	      2.31191      2.19162      2.08253         0.009239     -0.046333     -0.011582
O	      4.28263      4.13745      2.21029         0.022483     -0.050552      0.012685
O	      4.29929      2.26564      4.05471         0.000429     -0.026165     -0.054229
O	      6.22597      4.24901      4.23610        -0.105900     -0.045394      0.010789
O	      6.49071      2.18960      6.34191         0.064864      0.065889      0.046920
O	      8.52925      4.29698      6.39704         0.027731      0.024338     -0.029345
O	      2.27955      4.21675      4.13817         0.076986      0.020562      0.068527
O	      4.24481      6.13610      4.21665        -0.043679     -0.030272     -0.019791
O	      4.32788      4.19216      6.20247        -0.028114     -0.009048     -0.015700
O	      6.42673      6.26520      6.30999        -0.015336      0.201641      0.014400
O	      6.42858      4.22187      8.36986         0.062828     -0.017674      0.011287
O	      8.56191      6.30048      8.44963        -0.039237      0.060280     -0.014959
O	      2.06046      6.45022      6.38632        -0.017246      0.002908     -0.000320
O	      4.26572      8.55323      6.50793         0.039557     -0.028850      0.071261
O	      4.26620      6.47403      8.49875        -0.079714      0.000758     -0.046533
O	      6.41852      8.54650      8.43281        -0.030943     -0.036653      0.011107
O	      6.47714      6.33850     10.65509         0.057381      0.050628     -0.062108
O	      8.66154      8.46886     10.51638        -0.014598     -0.033689      0.022384
