# total energy = -236.72475547 eV
 
CRYSTAL
PRIMVEC
-0.003346 6.302116 6.287633 
6.298774 0.034943 6.249826 
4.255210 4.233126 -0.032686 
PRIMCOORD
36 1
Li	      6.35015      0.19328      6.34080         0.005565     -0.025772      0.011884
Li	      6.20684      4.29291      2.08487        -0.027717      0.012759      0.098599
Li	      6.36788      8.39308     10.46258        -0.002582      0.050048     -0.042163
Li	      4.24806      6.14974      2.02871        -0.023361      0.036614      0.072135
Li	      4.16731      4.29875      4.13739         0.007402     -0.009587     -0.004442
Li	      4.25009      2.14837      6.22580        -0.027207      0.105045     -0.052473
Li	      0.00841      4.19043      4.17253        -0.048537     -0.005842     -0.040317
Li	      2.23679      4.25024      6.25383        -0.019439     -0.067656      0.009717
Li	      8.36757      8.39581      8.27374         0.035637      0.055099      0.103665
Sc	      4.29731      2.25291      2.04773         0.056673     -0.062680      0.082938
Sc	      8.49218     10.46153     10.45018        -0.013086     -0.132929     -0.219977
Sc	      2.01851      2.22994      4.14449         0.059149     -0.044260     -0.063818
Sc	      6.27231      4.13347      6.28770        -0.136142      0.106840      0.003689
Mn	      4.12672      6.29862      6.24696         0.203238     -0.154482      0.056491
Mn	      6.41149      6.37067      8.35093        -0.149168      0.082520     -0.089970
Co	      2.07995      8.35194      6.27236        -0.348779     -0.092119     -0.085348
Co	      8.41706      6.35800     10.42612        -0.008264      0.102620     -0.053859
Ni	      2.17748      4.26350      2.08050         0.033368     -0.084569      0.016964
O	      2.12311      2.12480      2.02713         0.054844      0.011485      0.964254
O	      4.23729      4.21687      2.05017         0.088907     -0.027533     -0.014239
O	      4.12245      2.03938      4.15540         0.039697      0.010825     -0.007679
O	      6.42961      4.32821      4.17457        -0.002890     -0.014280      0.066925
O	      6.39836      2.13894      6.26272        -0.339155     -0.024576      0.115087
O	      8.45879      4.08605      6.22714         0.028964     -0.052055      0.026579
O	      2.10092      4.31723      4.16727        -0.008767      0.040879      0.085011
O	      4.13284      6.35171      4.17644        -0.060557     -0.003521      0.045382
O	      4.23188      4.37570      6.26406        -0.003674      0.022322     -0.019584
O	      6.33339      6.34987      6.32532         0.092714     -0.006470      0.079568
O	      6.40218      4.44454      8.32701        -0.053610      0.030031     -0.024620
O	      8.32603      6.36861      8.45102         0.105022      0.054023      0.041265
O	      2.07368      6.40314      6.13116        -0.151918      0.031975     -0.075815
O	      4.02940      8.22711      6.27619         0.486877      0.017365      0.156147
O	      4.41461      6.32019      8.37005         0.068876      0.036851     -0.092809
O	      6.33821      8.30857      8.31855        -0.001527     -0.046813     -0.018419
O	      6.41904      6.34059     10.28094         0.034092      0.008652      0.022596
O	      8.41722      8.33709     10.58008         0.025352      0.039190     -1.153364
