# total energy = -230.62634669 eV
 
CRYSTAL
PRIMVEC
0.003040 6.459317 6.496662 
6.381130 0.062061 6.437805 
4.236846 4.249950 0.058743 
PRIMCOORD
36 1
Li	     10.47198      4.35965      6.49704         0.068774     -0.017060      0.048535
Li	      8.53580      4.32403      4.50216        -0.074094      0.087921      0.000215
Li	      6.35465      2.17595      8.52602         0.046472     -0.085696     -0.015183
Li	      8.50568      4.46353      8.67346        -0.082057      0.065429     -0.034542
Li	      2.12599      2.32098      4.32531         0.030014     -0.095445     -0.013727
Li	      4.11933      4.34654      4.31829         0.051833      0.039817     -0.015620
Li	      4.34443      2.09788      6.43597         0.062896     -0.055034     -0.046387
Li	      4.30791      8.51808      4.42863         0.003078      0.014079      0.037849
Li	      2.12721      4.31136      6.25600        -0.047787      0.070613      0.048830
Sc	      4.16871      2.22881      2.21721        -0.196867      0.109773      0.003168
Sc	      6.35039      2.11884      4.40264        -0.039646      0.032419     -0.190566
Sc	      6.45369      4.30767      6.47360        -0.011966      0.245097     -0.238463
Sc	      6.49879      6.41738      8.64898        -0.364018      0.524665      0.170799
Mn	      6.33413      4.27132      2.24946         0.106884      0.203132     -0.017830
Mn	      4.20355      6.45487      6.51232        -0.075289      0.223785     -0.142625
Cu	      2.14619      6.34840      4.31942         0.150197      0.415450      0.280971
Cu	      4.32056      4.28788      8.59817         0.050416     -0.005642      0.273976
Ni	      2.13745      2.14995      0.03623         0.031046     -0.267519      0.040363
O	      2.14395      4.49653      4.26033        -0.006719     -0.422162      0.132154
O	      4.10672      6.39775      4.61326        -0.367239      0.015278      0.162950
O	      2.10182      1.92485      2.17027         0.074396      0.300567      0.172837
O	      4.46958      4.26371      2.15028        -0.429404     -0.089364      0.010912
O	      4.30316      2.12967      4.26270        -0.242221     -0.011463      0.073993
O	      6.41514      4.21403      4.21301         0.112837      0.119038      0.352674
O	      6.41084      2.26137      6.41284        -0.146042     -0.205579      0.140867
O	      8.47449      4.24166      6.52977         0.166725      0.210318     -0.243601
O	      4.26652      4.53589      6.62992        -0.132296     -0.393873     -0.241617
O	      6.13666      6.44728      6.52392         0.323345      0.070745     -0.107104
O	      6.40051      4.44816      8.54345         0.246477     -0.441823      0.074133
O	      8.44153      6.55036      8.49699         0.395614     -0.208501     -0.369673
O	      2.27919      6.50059      6.75644        -0.289785     -0.138140     -0.136601
O	      4.20150      8.37374      6.58652         0.014927      0.326321     -0.079238
O	      4.15448      6.49368      8.54733         0.159472     -0.116812      0.167674
O	      6.28758      8.71247      8.73111         0.040078     -0.109559     -0.012836
O	      6.46794      6.50814     10.77692         0.112942     -0.334719     -0.217022
O	      8.48270      8.37802     10.73249         0.257004     -0.076054     -0.070267
