# total energy = -230.03038102 eV
 
CRYSTAL
PRIMVEC
0.048984 6.288556 6.305598 
6.393246 -0.000222 6.354357 
4.278795 4.241747 -0.016113 
PRIMCOORD
36 1
Li	      8.49538      2.17283      6.34003        -0.020292      0.078571      0.105733
Li	      4.24683      2.11719      2.14301        -0.059123     -0.100594     -0.184309
Li	      8.46452      4.33695      4.24917        -0.036752     -0.099165      0.115570
Li	      6.48182      2.12911      8.41409         0.090941      0.105636     -0.149518
Li	      8.44493      6.30883      6.21671        -0.056365     -0.216257      0.107508
Li	      6.54041      4.21258      6.44898         0.168120      0.024604      0.065645
Li	      6.43395      4.21566     10.51126        -0.032488      0.112028      0.011111
Li	      6.46821      8.38968      6.32724        -0.184354     -0.108573      0.043123
Li	      6.51765      6.19945      8.42388         0.010510     -0.029015     -0.101703
Sc	      4.19089      4.18148      0.05434        -0.309929      0.017731     -0.290458
Sc	      6.31560      2.14488      4.29962         0.511222     -0.124972      0.235837
Sc	      4.38462      6.41716      6.28426         0.478700      0.666020      0.376202
Sc	      4.41968      4.14087      8.34500         0.108219     -0.151630      0.488899
Mn	      2.13451      0.03612      2.11375         0.330813      0.408104     -0.072804
Mn	      8.55724      6.28227     10.51962        -0.404240     -0.046564     -0.023649
Ni	      8.42106      4.19174      8.42614        -0.076702     -0.208518     -0.149941
Ni	      2.23101      2.11327      4.22318        -0.190691      0.126483      0.015609
Ni	      4.26263      4.20218      4.23454        -0.083464     -0.118489     -0.051506
O	      2.14325      2.01879      2.24169        -0.062130     -0.314044     -0.461185
O	      4.45555      4.24193      2.12186        -0.028151     -0.023958      0.619339
O	      4.25713      2.13717      4.21386         0.240444      0.616768     -0.039903
O	      6.39331      4.28673      4.03446        -0.261312     -0.348681      0.046472
O	      6.38229      2.05757      6.30018        -0.081152      0.001289     -0.196943
O	      8.55869      4.19266      6.42793         0.174255      0.091506     -0.361364
O	      2.19904      4.28513      4.10117         0.389386      0.260495      0.319445
O	      4.12486      6.25992      4.21474        -0.079986     -0.371276     -0.132733
O	      4.31102      4.24775      6.31696        -0.052088     -0.093852     -0.807679
O	      6.41455      6.36684      6.17806        -0.295857     -0.035278      0.479623
O	      6.41247      4.22678      8.45376        -0.360074     -0.083730      0.076623
O	      8.53936      6.27114      8.62863         0.032281      0.218700      0.092649
O	      2.17556      6.31239      6.35058         0.037744     -0.060297     -0.003045
O	      4.31467      8.42943      6.29198         0.039491     -0.092224     -0.041020
O	      4.15172      6.26910      8.41070        -0.083692     -0.029501      0.017324
O	      6.50798      8.62706      8.44965         0.007490     -0.042138     -0.009382
O	      6.59925      6.32563     10.58044         0.046960     -0.023449     -0.016454
O	      8.52698      8.20615     10.49766         0.092264     -0.005730     -0.123117
