# total energy = -241.49429497 eV
 
CRYSTAL
PRIMVEC
0.038457 6.582639 6.289844 
6.249939 0.045481 6.283965 
4.213022 4.430999 -0.017155 
PRIMCOORD
36 1
Li	      8.32806      2.39194      6.14393        -0.057519      0.122495     -0.047017
Li	      8.36866     10.96427     10.46461         0.018349     -0.053963     -0.008385
Li	      4.27741      4.30984      4.36415         0.002313     -0.138184     -0.138022
Li	      4.11301      2.40435      6.25965         0.069945     -0.061130      0.000975
Li	      6.22449      4.42185      6.13425         0.110680     -0.089502     -0.064553
Li	      8.41036      6.71096     10.46437        -0.015775      0.020374     -0.008495
Li	      4.19566      6.40316      6.27918        -0.026971      0.013697      0.000833
Li	      4.15812      4.45603      8.27353        -0.006192      0.019450      0.136910
Li	      6.34790      6.65280      8.37456         0.032937      0.022722      0.060092
Sc	      6.25368      6.69323     12.44493        -0.166456      0.150081     -0.110448
Sc	      4.27037      8.64411      8.37343         0.055974      0.018715      0.287753
Sc	      6.19988      2.33161      8.34959         0.047723      0.006451     -0.006708
Sc	      8.33013      4.58264      8.37095         0.006205     -0.025187      0.223651
Mn	      6.37635     10.92486      8.38115        -0.087448     -0.094450      0.119831
Mn	      6.36433      6.64538      4.28284         0.075893      0.171206     -0.189721
Mn	     10.41285      8.89276     10.49609         0.019695     -0.037126     -0.198132
Co	      6.39697      8.86075     10.48313         0.033404     -0.100522     -0.263548
Co	      2.16678      4.38109      6.27234         0.841519     -0.019001      0.200123
O	      2.11585      2.30393      2.25872         0.010710     -0.031679      0.006126
O	      4.25936      4.46593      2.06068         0.083134      0.040369      0.014723
O	      4.16834      2.21565      4.13137        -0.188891      0.020754      0.083720
O	      6.28590      4.38413      4.04644        -0.068625     -0.091813      0.109587
O	      6.33631      2.18733      6.27301        -0.032190      0.133613     -0.270561
O	      8.39338      4.40196      6.38328        -0.020281     -0.008190     -0.106598
O	      1.98162      4.46057      4.28909        -0.250330      0.013327     -1.210469
O	      4.34358      6.87244      4.17805        -0.031611     -0.034428      0.049443
O	      4.06540      4.41585      6.25985        -0.121423     -0.025433      0.028707
O	      6.32927      6.83595      6.15026         0.003557     -0.197236      0.126707
O	      6.26683      4.41357      8.55311        -0.069879     -0.003138     -0.046551
O	      8.44831      6.56995      8.40861        -0.010034      0.089982     -0.066508
O	      2.09959      6.37319      6.44401         0.074408      0.101969      0.044583
O	      4.31065      8.89421      6.18892        -0.062189      0.023787      0.028605
O	      4.07334      6.66615      8.34642         0.006309     -0.075458     -0.061160
O	      6.30878      8.74483      8.31824        -0.204311      0.090591      1.213614
O	      6.25787      6.47194     10.45080        -0.031476     -0.028095      0.010887
O	      8.50638      8.80117     10.50640        -0.041153      0.054953      0.050005
