# total energy = -246.08490169 eV
 
CRYSTAL
PRIMVEC
-0.008061 6.362597 6.401365 
6.376872 -0.011409 6.404869 
4.250186 4.243089 -0.006666 
PRIMCOORD
36 1
Li	      4.27462      4.21154      0.09886         0.025024     -0.029767     -0.018383
Li	      4.18992      8.56606      8.37937         0.013138     -0.017872     -0.015615
Li	      4.23836      6.15804      2.22270        -0.020767     -0.023826     -0.001030
Li	      2.32054      4.24798      2.14927        -0.001658      0.009347     -0.008529
Li	      4.12671      4.28422      4.18820         0.014817     -0.030776      0.001863
Li	      2.09566      6.35950      4.37062        -0.040489      0.043796      0.058414
Li	      2.24574      4.22969      6.30620         0.077835      0.050959     -0.040309
Li	      4.18224      6.41260      6.41900         0.008135      0.043999      0.019498
Li	      8.45930      8.42728      8.48800         0.004219     -0.016888      0.027897
Sc	      6.23512     10.52431      8.47207         0.110315     -0.074490      0.003797
Sc	      4.32029      6.39401     10.62725        -0.024241     -0.018862      0.034651
Sc	      6.27743      4.24910      6.47984         0.009195     -0.030221     -0.024697
Sc	      0.04151      4.20170      4.25982        -0.110384      0.031670     -0.004584
Mn	      2.15631      8.43981      6.44327        -0.019130      0.049898     -0.050035
Mn	      2.09311      2.17174      4.22241         0.025627     -0.092869      0.032860
Mn	      8.49173      6.36089      6.45200         0.037687     -0.048510      0.028345
Mn	      6.35514      6.43048      8.50274        -0.016023      0.071545      0.007787
Co	      6.42825      8.44863     10.67771         0.001695     -0.022458     -0.071795
O	      2.13976      2.06915      2.19573        -0.023426      0.016518      0.037944
O	      4.30448      4.22027      2.12844        -0.055497     -0.037488      0.001833
O	      4.18300      2.11201      4.45674        -0.155008      0.020812     -0.025700
O	      6.43458      4.36459      4.26203        -0.003998      0.086969     -0.014528
O	      6.53657      2.14659      6.28607        -0.035410      0.034896      0.068596
O	      8.45292      4.29337      6.36813         0.010706      0.003861      0.043399
O	      2.09075      4.08219      4.27750         0.048505     -0.014545     -0.039383
O	      4.41398      6.39513      4.20018         0.053218     -0.012334      0.023303
O	      4.27161      4.04714      6.41778        -0.022596      0.025446      0.005990
O	      6.29875      6.34129      6.29735        -0.000407      0.018666     -0.083364
O	      6.32808      4.44102      8.52163        -0.037502      0.001632      0.012304
O	      8.32874      6.36343      8.36861         0.000765      0.005487      0.013440
O	      2.15112      6.43069      6.44873        -0.008013     -0.031700     -0.043993
O	      4.04718      8.49785      6.33655        -0.016750     -0.008490      0.017347
O	      4.34455      6.39345      8.58346         0.039336      0.003732     -0.045984
O	      6.36715      8.40074      8.69138        -0.005619      0.014343     -0.037615
O	      6.38783      6.34407     10.66150         0.030113     -0.056901      0.037327
O	      8.50731      8.51744     10.71589         0.086587      0.034421      0.048950
