# total energy = -254.74261313 eV
 
CRYSTAL
PRIMVEC
0.007125 6.413282 6.444568 
6.463352 0.002167 6.449752 
4.288552 4.258447 0.021887 
PRIMCOORD
36 1
Li	      6.45776      4.22528      2.33012        -0.001140      0.052161      0.000602
Li	      4.32839      6.35863     10.62180         0.008128     -0.008753     -0.014051
Li	      6.53160      8.56249     10.68250         0.089919     -0.001512      0.040559
Li	      8.56897      4.30342      8.62592        -0.020488     -0.003530     -0.046697
Li	      4.32338      4.21629      4.30737         0.011699      0.021789      0.008258
Li	      8.51689      6.51021      6.62299         0.004627      0.031682      0.056513
Li	      2.29724      4.17204      6.44153         0.042243      0.017395     -0.011848
Li	      8.58761      8.46231      8.65105         0.041072     -0.052147     -0.017700
Li	      6.48497      6.42937      8.68360        -0.046762      0.009525      0.041289
Sc	     10.66876      4.31291      6.45806         0.000926      0.083674      0.009156
Sc	      8.58194      2.14606      6.43150        -0.092769     -0.033352      0.021813
Sc	      6.43219      4.28307      6.51604        -0.028144     -0.028182     -0.002778
Sc	      8.60218      6.32200     10.60606         0.042908      0.012657      0.029829
Sc	      4.27251      6.33966      6.53967        -0.029294     -0.066891      0.075864
Ti	      4.52550      8.57464      8.68697         0.394012      0.018354      0.109087
Ti	      2.18852      2.13181      4.21704         0.009088     -0.064397     -0.057037
Co	     10.70850      6.39541      8.62513         0.130891     -0.123139      0.077728
Ni	      6.46303      4.29728     10.59380        -0.024851     -0.042674     -0.015403
O	      2.10863      2.11681      2.24059        -0.254152      0.050668      0.038969
O	      4.31946      4.15944      2.10130        -0.046916      0.093827     -0.036239
O	      4.12630      2.20232      4.14534        -0.069428     -0.022317     -0.159016
O	      6.43264      4.47847      4.36427        -0.004277      0.105323      0.009933
O	      6.49941      2.13925      6.39010        -0.043474     -0.051490      0.016703
O	      8.60150      4.19945      6.44051         0.019067      0.018502     -0.028198
O	      2.08896      4.16909      4.30075         0.080261     -0.041777      0.020971
O	      4.34404      6.44745      4.36400         0.003616     -0.089415     -0.068009
O	      4.35317      4.33739      6.50536        -0.010297     -0.002628     -0.032861
O	      6.39311      6.38864      6.30497         0.027912     -0.037018     -0.024624
O	      6.47076      4.20692      8.56525        -0.067420     -0.162900      0.017583
O	      8.67153      6.35720      8.61890         0.270016      0.087138     -0.041821
O	      2.14890      6.45012      6.38054         0.003011      0.017573     -0.008868
O	      4.23174      8.56673      6.62672         0.005448     -0.004387     -0.036146
O	      4.31850      6.63340      8.56473         0.029247      0.106764      0.038416
O	      6.33446      8.56893      8.69460        -0.368029      0.003683     -0.015739
O	      6.53460      6.33691     10.79697         0.010223      0.105630     -0.028424
O	      8.67916      8.46443     10.80586        -0.116875      0.000166      0.032189
