# total energy = -259.12379948 eV
 
CRYSTAL
PRIMVEC
0.042681 6.436313 6.394735 
6.540222 0.022953 6.414069 
4.379286 4.322305 -0.003658 
PRIMCOORD
36 1
Li	      6.44658      4.47231      2.24921        -0.071929      0.035334      0.032246
Li	      4.27262      2.23469      2.21098         0.024505     -0.007613     -0.007517
Li	      0.11415      2.29697      2.18881        -0.005583      0.059694      0.012072
Li	      2.09121      4.21459      2.24655        -0.014824      0.029545     -0.019759
Li	      4.38872      4.26913      4.21880        -0.027568     -0.002636      0.003577
Li	      4.40440      2.22262      6.40882         0.024278     -0.004342      0.000388
Li	      6.43531      4.34299      6.51501        -0.040055     -0.016189     -0.067961
Li	      6.60587      4.27148     10.51292         0.017231      0.003077      0.048842
Li	      4.53659      4.25185      8.48597        -0.004264     -0.002646     -0.011759
Sc	      2.19188      2.17041      0.12940        -0.026113      0.076972     -0.061755
Sc	      4.27779      0.08006      4.20138         0.023207     -0.032755      0.001049
Sc	      6.49243      2.22583      4.17306        -0.003777      0.023315      0.004463
Sc	      6.65191      8.56382      6.43381         0.034592     -0.027301     -0.017215
Sc	      4.47431      6.38519      6.40099        -0.008371      0.005725     -0.032180
Ti	      4.33144      4.34379      0.20168        -0.151298      0.080280      0.395189
Ti	      8.82101      6.42713     10.50962         0.215526     -0.169164     -0.267744
V	      6.59683      6.34408      8.54356         0.021076      0.022739     -0.075241
Cu	      2.23389      2.15921      4.09112         0.083703     -0.013650      0.055933
O	      2.16714      2.16696      2.07167         0.004868      0.014577      0.198045
O	      4.40707      4.30641      1.98529         0.003513     -0.003897     -0.335743
O	      4.46660      2.10661      4.28933         0.025275      0.020292      0.006585
O	      6.64222      4.23267      4.27677        -0.039557     -0.006676     -0.002050
O	      6.61486      1.97347      6.37828         0.021178     -0.084431      0.038551
O	      8.97120      4.26718      6.33158         0.136221      0.014357      0.053289
O	      2.18532      4.52591      4.32334         0.017356      0.176783     -0.034220
O	      4.14391      6.52998      4.31273        -0.249181     -0.045470     -0.039646
O	      4.31323      4.38205      6.39931         0.002091     -0.029082     -0.031695
O	      6.51374      6.49813      6.42779         0.030161     -0.035607     -0.053561
O	      6.59073      4.42413      8.51345        -0.002509     -0.074480     -0.042136
O	      8.65469      6.49319      8.65036         0.033667     -0.039700      0.151633
O	      2.16682      6.44067      6.35826        -0.036095      0.000132      0.000690
O	      4.42446      8.67502      6.40364        -0.017265      0.043427      0.065157
O	      4.53537      6.44777      8.52270        -0.004807     -0.007062      0.013904
O	      6.59549      8.47344      8.51259        -0.021138     -0.011973      0.000265
O	      6.63839      6.47958     10.68840         0.022287      0.007252      0.020357
O	      8.68405      8.55362     10.73266        -0.016403      0.001173     -0.002053
