# total energy = -264.56137675 eV
 
CRYSTAL
PRIMVEC
0.028005 6.449686 6.337406 
6.455227 0.015982 6.348836 
4.325443 4.329154 -0.010949 
PRIMCOORD
36 1
Li	      2.28329      6.43709      8.41702        -0.012680     -0.025769     -0.006625
Li	      4.35807      8.50719      8.40580         0.013053     -0.005964     -0.022878
Li	      4.36153      4.39932      4.26364         0.008511      0.048108     -0.022743
Li	      4.25654      2.27648      6.35423         0.039609     -0.004063      0.010736
Li	      6.33413      4.37993      6.35756        -0.035709      0.012523      0.034149
Li	      4.32880      8.55719      4.22649         0.027156     -0.012677     -0.034515
Li	      8.64124      6.52457     10.57771        -0.023110      0.003196     -0.032535
Li	      4.31234      6.41029      6.43785        -0.035222      0.008614     -0.058873
Li	      4.33862      4.40475      8.32852        -0.015649     -0.074056      0.000758
Sc	      4.42296     10.70581      6.34376        -0.007926      0.014221      0.009199
Sc	      4.32028      6.45550     10.46692        -0.202291      0.002383      0.242777
Sc	      6.38622      2.26660      4.14420        -0.078035     -0.060274     -0.086982
Sc	     10.69938      6.56136      8.46926         0.059726      0.154894      0.016999
Sc	      8.59683      4.36162      8.50212        -0.032458     -0.008647      0.061547
Ti	      2.30435      8.51638      6.33567        -0.098798     -0.041556     -0.019423
Ti	      6.45553      6.52148      4.33808        -0.072185     -0.084493     -0.168407
Ti	      2.31916      4.27171      6.31607        -0.018205      0.085590      0.096365
Fe	      6.45697      6.46874      8.40401        -0.056524      0.033105      0.108400
O	      2.12430      2.17579      2.06326         0.062638      0.001892     -0.051717
O	      4.23721      4.42491      2.06274         0.020377      0.007089      0.004132
O	      4.23619      2.11417      4.23302         0.036557      0.007455      0.011119
O	      6.50953      4.38200      4.25925         0.014110      0.001787     -0.020447
O	      6.57609      2.11558      6.33575        -0.033537      0.020525     -0.016367
O	      8.71705      4.17199      6.36567        -0.007402     -0.037520     -0.046590
O	      2.16313      4.25169      4.27407         0.059799     -0.050715      0.110591
O	      4.55593      6.49094      4.17323         0.026472     -0.014622     -0.000619
O	      4.15755      4.29003      6.32155        -0.128467      0.010664      0.007588
O	      6.51103      6.54146      6.28533         0.067170     -0.001313     -0.179583
O	      6.50175      4.32516      8.45982         0.052259     -0.449598     -0.085965
O	      8.66249      6.42930      8.48330        -0.263806      0.101041     -0.033902
O	      2.19905      6.41856      6.31171         0.088949      0.086481      0.039770
O	      4.33723      8.61445      6.32181         0.027058     -0.082007     -0.007256
O	      4.33162      6.41927      8.48377         0.401274      0.008589      0.026480
O	      6.46826      8.60956      8.38817         0.052856      0.390340     -0.059173
O	      6.42387      6.58230     10.60431        -0.006034     -0.025469      0.137822
O	      8.56090      8.65844     10.71988         0.070464     -0.019753      0.036168
