# total energy = -202.06028227 eV
 
CRYSTAL
PRIMVEC
0.016348 6.533191 6.102407 
6.182076 0.008721 6.109463 
4.124519 4.363431 0.002614 
PRIMCOORD
36 1
Li	     10.22660      4.43072      6.13111        -0.025476     -0.004519      0.042666
Li	      8.18964      2.40791      6.16178         0.050126     -0.003755     -0.020931
Li	      4.14247      8.50620      8.10555         0.043481      0.054426      0.021900
Li	      4.12057      0.07977      4.10321         0.035270     -0.034526     -0.027323
Li	      6.19004      2.14820      4.18951         0.012612     -0.011595     -0.176238
Li	      8.25611      6.42220      6.12771        -0.012979     -0.009254     -0.034442
Li	      6.29109      4.18686      6.08511         0.028362      0.027891     -0.021083
Li	      4.19275      6.51382      6.13729        -0.015179     -0.028049      0.037547
Li	      4.11023      4.39142      8.06000        -0.074518      0.074062      0.029821
Fe	      2.24905      6.46390      8.12325        -0.216732     -0.243977      0.057443
Fe	      6.18138      2.21045      8.07990        -0.256462      0.379580     -0.174141
Fe	      4.16918      4.11367      4.10312         0.023114     -0.079790     -0.352637
Fe	     10.22941      8.82324     10.21846         0.007836      0.181475     -0.236215
Fe	      8.22101      6.68998     10.21857        -0.090376      0.137259      0.039725
Fe	      2.07126      4.36741      6.09411        -0.016508     -0.127352     -0.013138
Cu	      8.26505      4.41018      8.11226         0.075303      0.037593      0.299945
Cu	      6.20485      6.42133      4.11962         0.117916     -0.137382      0.048910
Ni	      6.16755      6.62369      8.08227        -0.002794      0.090678      0.031707
O	      8.25182      4.37407      6.28502        -0.002399     -0.023711     -0.255221
O	      6.19768      6.80743      6.06195        -0.015518     -0.458033     -0.372755
O	      1.93450      1.93781      2.09695         0.641584     -0.196134     -0.002282
O	      3.99915      4.62759      2.10633        -0.119464     -1.538457      0.151000
O	      4.03188      2.21578      4.01886        -0.104164     -0.028881      0.144964
O	      6.09263      4.18337      4.01382         0.132918      0.140043      0.171304
O	      6.17862      2.19281      6.30941        -0.043297      0.037791     -0.623396
O	      2.08257      4.56672      4.00042         0.004263     -0.032225     -0.710937
O	      4.14937      6.67687      3.93532        -0.024456     -0.075430      0.462230
O	      3.95918      4.42098      5.99034         0.424560      0.031321      0.017266
O	      6.36411      4.23458      8.16567         0.042436      1.025479      0.022986
O	      8.33737      6.72311      8.22795        -0.348128      0.224464     -0.079465
O	      2.06142      6.33068      6.10958         0.025160      0.466181     -0.231550
O	      4.31774      8.72942      6.02165        -0.424643     -0.058135      0.021654
O	      4.12365      6.48584      8.14494         0.197065      0.011328     -0.076818
O	      6.16292      8.74571      7.96552         0.061524      0.211626      1.453123
O	      6.23956      6.49079     10.09433        -0.031918     -0.041639      0.266690
O	      8.31818      8.65296     10.28450        -0.098519      0.001647      0.087690
