# total energy = -92.68391576 eV
 
CRYSTAL
PRIMVEC
0.000203 2.032577 2.030854 
6.097272 6.158001 -4.121160 
-4.072387 2.061091 -2.059703 
PRIMCOORD
16 1
Li	     -2.00950      4.04465     -2.03987        -0.115538      0.061720     -0.101834
Li	      2.03320      5.99645     -3.99074         0.064818      0.156059     -0.225506
Li	     -0.00605      4.02835     -0.02776         0.015802     -0.072040      0.101822
Li	      3.96795      6.12779     -2.11520         0.216619      0.017398      0.045933
Mn	     -4.00581      2.03067     -2.02596        -1.677035     -0.769758      0.198964
Mn	     -0.01030      6.05737     -2.05149        -0.669031      0.461444     -0.030794
Ni	      3.99322      8.07851     -4.06763         0.550771      0.246184     -0.005275
Ni	      2.00747      4.04464     -2.04026         0.459579     -0.398542     -0.000654
O	      4.12892      6.07711     -4.06667         0.686873     -0.124067     -0.089672
O	      0.00506      5.94853     -3.94449         0.068574      0.318869     -0.575516
O	      1.98517      8.20514     -4.19218         0.083845      0.796469     -0.507581
O	     -2.13744      4.00145      0.00310         0.012319      0.065396      0.073476
O	     -0.00533      4.14714     -2.14190        -0.571081     -0.547797      0.308979
O	      1.87221      6.04619     -2.04066         0.552367      0.458985     -0.163894
O	     -0.00030      1.91068      0.09338         0.165639     -0.281800      0.321891
O	      2.13298      4.05838     -0.05194         0.155478     -0.388518      0.649660
