# total energy = -189.49622290 eV
 
CRYSTAL
PRIMVEC
0.022448 6.205139 6.166314 
6.157767 0.027797 6.160771 
4.124170 4.152172 -0.000395 
PRIMCOORD
36 1
Li	     10.29734     10.34154     12.28568        -0.056276     -0.030968     -0.042048
Li	      4.07941      2.10175      2.02484         0.011450     -0.020203      0.004996
Li	      8.21421      4.26511      8.21679        -0.029176     -0.024802     -0.070575
Li	      2.04540      2.14623      4.14365         0.000773      0.013376      0.164625
Li	      8.22058      6.24790      6.24275        -0.062918     -0.012828     -0.070409
Li	      6.18693      4.18522     10.25999         0.027242     -0.027990     -0.003253
Li	      8.21702      6.19855     10.15591         0.004879      0.002066      0.085158
Li	      8.27938      8.20952      8.21961         0.075638      0.058825     -0.044071
Li	      6.34536      6.16985      8.23172        -0.029766     -0.079872     -0.080218
Mn	      6.18572      8.27127     10.22219         0.060385     -0.024851      0.122549
Co	      2.04516      0.02468      2.05285         0.184769     -0.187152     -0.030324
Co	      6.19324      4.21230      6.22877        -0.053143     -0.567332      0.097974
Cu	      2.10845      8.27572      6.14046         0.051005      0.134630     -0.037080
Cu	     10.23340      6.26725      8.28868         0.106987     -0.036379     -0.108865
Cu	      4.07884      4.15836      4.13968         0.068500     -0.194589      0.082085
Cu	      6.13584      8.24361      6.17292         0.052639      0.087704      0.157975
Ni	      4.15537      6.24402     10.24867         0.011316      0.094292      0.008271
Ni	      4.13222      6.23759      6.17960         0.192205     -0.026599      0.069581
O	      8.35744      6.21439      8.19939         0.294810      0.044843      0.057062
O	      4.09487      8.25152      6.13344        -0.064418      0.229641      0.040011
O	      6.15725      6.40501     10.21251         0.072976      0.078355     -0.015731
O	      8.14407      8.33708     10.31346        -0.136603     -0.047981     -0.141290
O	      1.95419      1.90939      1.96828        -0.316517      0.070212      0.142226
O	      4.24887      4.23230      2.14349        -0.024897      0.273097     -0.205751
O	      4.26044      2.12675      4.10139        -0.066737     -0.115092     -0.090062
O	      6.16023      4.07066      4.04045         0.161117      0.021497     -0.050251
O	      6.22952      2.20729      5.96700        -0.127015      0.235322      0.143837
O	      8.09286      4.09929      6.13262         0.064118      0.026244     -0.031630
O	      2.14567      4.11904      4.26749        -0.384307      0.015107     -0.029173
O	      4.13101      6.13273      4.21157         0.041316      0.226847     -0.076635
O	      4.23850      4.22546      6.11530         0.230391     -0.171140      0.139081
O	      6.15206      6.11319      6.22660         0.170865     -0.053334      0.090496
O	      6.19013      4.04667      8.13139        -0.020123     -0.198182     -0.362244
O	      2.07924      6.24365      6.32811        -0.180155     -0.027028      0.039193
O	      3.90619      6.25503      8.19566        -0.253110      0.050861      0.138075
O	      6.18255      8.47883      8.22518        -0.078220      0.183401     -0.093586
