# total energy = -191.66883105 eV
 
CRYSTAL
PRIMVEC
-0.026229 6.101651 6.291248 
6.104897 0.006235 6.259206 
4.104900 4.080187 -0.031210 
PRIMCOORD
36 1
Li	      0.04920      6.08048      6.19496         0.018567     -0.004171      0.039006
Li	      1.99264      6.09306      8.28426         0.016608      0.022388     -0.025362
Li	      4.10763      6.09769      2.19969         0.026292      0.019880     -0.051621
Li	      6.00357      6.13171      4.23849         0.013431      0.031180     -0.038733
Li	      4.09268      8.11360      4.22655         0.027878      0.025680     -0.003940
Li	      2.10522      6.10281      4.26408        -0.047074     -0.032316      0.011824
Li	      6.01187      8.12888      6.24902         0.022625     -0.023072      0.031481
Li	      4.01708      6.20462      6.11386        -0.018004     -0.102005      0.085479
Li	      6.12443      6.12630      8.35679        -0.049806     -0.025481     -0.018837
Mn	      2.01914      4.07510      2.11651        -0.085459     -0.036181     -0.024632
Co	      2.05693      8.08746      6.28500         0.201539      0.028091      0.137186
Co	      6.11875      4.09797      6.25556         0.169291     -0.024768      0.194467
Co	      4.04484      4.13565      8.32615         0.031809     -0.194482      0.028614
Cu	      4.06572      6.11567     10.43192        -0.048886     -0.147035     -0.055624
Cu	      6.12806      8.10957     10.42428         0.167025     -0.004726     -0.026009
Cu	      4.06166      4.14423      4.15701        -0.011191      0.052532      0.122759
Cu	      8.15238      6.12504      6.24369        -0.096791     -0.128992      0.133221
Ni	      4.10588      8.08958      8.30919        -0.026427      0.023256     -0.099625
O	      1.99229      6.29441      6.29962        -0.033620     -0.020198     -0.017711
O	      4.04675      6.04544      8.45787         0.000093      0.029767      0.059678
O	      6.15788      8.14497      8.40913         0.085382      0.027888      0.003422
O	      6.00153      6.16423     10.47348         0.017038     -0.024791     -0.033039
O	      2.06905      2.12054      1.93383        -0.086731      0.038650     -0.055367
O	      3.95962      4.01996      2.17623         0.001061      0.116394     -0.068547
O	      4.15510      2.01283      4.23874        -0.100042      0.182178     -0.045878
O	      6.11749      4.04081      4.31562         0.154979      0.084277     -0.015832
O	      6.25006      2.16317      6.18278        -0.080294     -0.055719      0.050282
O	      8.06765      4.01737      6.37057        -0.043834      0.019932     -0.119020
O	      2.06136      4.07538      4.00454        -0.172847     -0.042533     -0.029308
O	      4.07857      6.05328      4.17174         0.013324      0.019028     -0.043420
O	      4.20952      4.00905      6.22375         0.015877      0.100817     -0.158374
O	      6.17155      5.98558      6.22741         0.000898      0.044236      0.005075
O	      6.15663      4.06647      8.20482        -0.006861      0.020729     -0.084344
O	      8.18423      6.06407      8.18921        -0.008203     -0.009170      0.166601
O	      3.91725      8.16715      6.29716        -0.120521      0.036971     -0.113420
O	      8.10905      8.20752     10.57342         0.052873     -0.048233      0.059548
