# total energy = -180.64925654 eV
 
CRYSTAL
PRIMVEC
-0.008387 6.087407 6.137078 
6.130705 -0.024539 6.153397 
4.083716 4.065639 -0.013023 
PRIMCOORD
36 1
Li	     10.17976      4.05649      6.12179        -0.031586     -0.020588     -0.004661
Li	      8.16442      8.09937     12.27207        -0.031343      0.002521      0.000633
Li	      6.11015     10.12066      8.18531         0.024962     -0.034936     -0.019278
Li	      8.17180      4.01993      4.12215        -0.009181     -0.042132      0.043201
Li	      8.15976      4.03595      8.15559         0.003804      0.016364     -0.056738
Li	      6.16107      4.04411      6.14681         0.021332      0.005514      0.020485
Li	      2.04575      4.06536      6.16222         0.004868      0.025596      0.037129
Li	      8.17786      8.10221      8.20435        -0.003209      0.062922      0.000708
Li	      6.11131      6.08129      8.20788        -0.026847     -0.020220     -0.017769
Mn	      4.07344      6.07079      6.16669        -0.013243     -0.043219      0.254636
Ni	      4.07536      2.05185      2.01303        -0.063223      0.001177     -0.086216
Ni	      6.12780      2.01129      4.10861         0.060946     -0.012483      0.053766
Ni	      6.17235      2.00473      8.14633         0.082301     -0.071406     -0.108274
Ni	      2.05827      2.00108      4.09318         0.025986     -0.002906      0.007267
Ni	      4.07625      4.04860      4.08493        -0.050640      0.039079      0.008782
Ni	      8.14418      6.06081      6.18049        -0.083012      0.078989      0.065479
Ni	      6.09881      4.08557     10.24037        -0.012314      0.038403      0.078355
Ni	      8.16069      6.07049     10.21124        -0.019186     -0.049537     -0.035356
O	      2.03242      2.01803      2.15534        -0.002962     -0.001562     -0.151369
O	      4.09177      4.09963      2.17691        -0.007872     -0.024900     -0.237978
O	      4.06543      2.03719      4.10067         0.103147     -0.191277     -0.018325
O	      5.97383      4.05267      4.09118         0.243447     -0.014556      0.019759
O	      6.03295      2.00275      6.10499         0.134654      0.000091     -0.051468
O	      8.16608      4.16897      6.13633        -0.013477     -0.188828     -0.008442
O	      2.12079      4.06954      4.08718        -0.080264     -0.035589     -0.015144
O	      4.09996      6.13967      4.15115        -0.011615      0.060163      0.107833
O	      4.07094      4.09492      6.02363         0.021488      0.109124      0.179501
O	      6.08170      6.08289      6.02896        -0.122132      0.032192      0.151370
O	      6.13681      3.92219      8.31000         0.022957      0.211249     -0.124859
O	      8.31416      6.07975      8.18970        -0.163865      0.011394      0.042638
O	      2.18672      6.07183      6.03591         0.086296      0.030649      0.129512
O	      4.08441      8.00522      6.10370         0.011414     -0.019475     -0.037102
O	      4.07809      6.12403      8.01044        -0.023689     -0.127258     -0.052012
O	      6.00963      8.10827      8.32024         0.160639     -0.036903     -0.150421
O	      6.21552      6.04018     10.22956        -0.256704      0.025131     -0.035421
O	      8.12075      8.03657     10.23181         0.018123      0.187218      0.009779
