# total energy = -195.69364596 eV
 
CRYSTAL
PRIMVEC
-0.018631 6.221028 6.291233 
6.109795 0.009044 6.263249 
4.066542 4.122277 0.012797 
PRIMCOORD
36 1
Li	      4.08839      2.02790      2.16727        -0.149698     -0.031680      0.155082
Li	      4.08335      0.02335      4.18564        -0.051234      0.053535     -0.040141
Li	     10.13439      6.31016      8.48695         0.073400      0.003681      0.356048
Li	      4.03680      4.15161      4.27876         0.094181      0.179320     -0.039226
Li	      6.03810      4.21736      6.40210         0.120043      0.093484     -0.000656
Li	      6.11580      4.07915     10.35766        -0.004062     -0.275317     -0.076069
Li	      8.14833      6.24202     10.35260         0.212037      0.019028     -0.119887
Li	      4.11103      6.11215      6.22899         0.098430      0.042753     -0.245991
Li	      6.10657      6.14030      8.39888        -0.022446     -0.047823      0.023998
Cr	      4.04301     10.30786      6.32795         0.003033      0.427766      0.010786
Cr	      2.11816      0.02901      2.15218         0.038213      0.616933      0.298290
Co	      6.04895      8.25547     10.44426        -0.194977      0.024560      0.104151
Co	      6.03290      6.20993      4.21677         0.319594      0.087296      0.015527
Cu	      8.14701      8.30438     12.50446        -0.092317      0.011623     -0.088134
Ni	      8.08472      4.18068      8.41122        -0.038991     -0.139266     -0.040680
Ni	      8.12504      6.20930      6.30713        -0.135941     -0.170287     -0.075297
Ni	      2.03624      4.12811      6.23683         0.304609     -0.295851     -0.713426
Ni	      8.15862      8.24108      8.37990         0.125989      0.013677      0.340362
O	      6.06752      4.19242      8.38334         0.110087     -0.027293      0.015851
O	      2.08411      2.02536      2.30706        -0.010021     -0.202886     -0.735489
O	      4.16307      4.18140      1.90070         0.036651     -0.051554     -0.164392
O	      4.14671      2.06930      4.25199         0.537326      0.015225      0.034105
O	      6.04589      4.09093      4.03241         0.082130     -0.156186     -0.154076
O	      6.15938      1.97576      6.08580         0.043395      0.062954     -0.174130
O	      8.20131      4.07454      6.35081         0.053300     -0.087294     -0.146908
O	      2.04233      3.96875      4.17263         0.117622      0.013694      1.186440
O	      4.22464      6.17061      4.22359        -0.587023     -0.086221      0.096459
O	      4.02122      4.10285      6.42317        -0.740251      0.057105     -0.623020
O	      6.11309      6.23889      6.07711        -0.142059      0.178239      0.604014
O	      8.13196      6.18543      8.33415        -0.039877      0.049444     -0.075223
O	      1.97327      6.25156      6.41477        -0.045649     -0.207277     -0.012436
O	      4.02770      8.45513      6.21275         0.400521     -0.256007      0.010113
O	      3.90614      6.20645      8.32777        -0.103291      0.053240     -0.014467
O	      6.10210      8.36581      8.46509        -0.286212     -0.028213     -0.269690
O	      6.08492      6.39579     10.59541         0.002626      0.035043      0.044105
O	      7.93880      8.30073     10.34583        -0.129137      0.024556      0.514004
