# total energy = -200.68610333 eV
 
CRYSTAL
PRIMVEC
-0.016094 6.164305 6.263963 
6.210701 -0.043514 6.291714 
4.119165 4.106566 -0.007523 
PRIMCOORD
36 1
Li	     -0.00526      6.15761      6.25588         0.018524      0.061300     -0.191113
Li	      8.25728     10.21326     10.44286        -0.005703     -0.005405      0.091747
Li	     10.22126      6.13921      8.37005        -0.041673      0.083095      0.045185
Li	      8.15665      4.15860      8.37112        -0.083291      0.101465     -0.022494
Li	      8.31152      6.08560      6.44112        -0.044861     -0.007024      0.096290
Li	      6.10614      4.12261     10.39325         0.155174     -0.073859     -0.082342
Li	      8.18631      6.19416     10.33030         0.016483     -0.081845     -0.034334
Li	      8.28870      8.12831      8.41680        -0.071666     -0.148618     -0.005629
Li	      6.32590      6.04911      8.44654         0.060459      0.014697     -0.000142
Cr	      4.13563      4.08099      4.17106        -0.206624      0.298746      0.520154
Cr	      4.11905      6.16669      6.23939         0.035965      0.035746     -0.262636
Co	      6.25716      8.01479     10.48058         0.195555      1.120052      0.105785
Co	      6.22028      6.10453      4.20943        -0.198207      0.114944      0.215185
Co	      6.25035      4.06268      6.36724         0.372400     -0.339949      0.262148
Co	      2.02871      4.14281      6.25688         0.510384     -0.291067     -0.158397
Cu	      2.06404      6.16953      8.35069         0.011987     -0.241895      0.027304
Ni	      8.24718      8.18639     12.48250        -0.155187      0.045978      0.081378
Ni	      4.13657      2.04563      2.10492         0.063318     -0.086642     -0.020858
O	      8.25525      6.10749      8.39266         0.096432     -0.060946      0.024475
O	      2.10358      1.88293      2.24917         0.092742      0.210796      0.092424
O	      4.30086      4.08098      2.17678        -0.029580      0.050140     -0.070643
O	      4.08411      2.08581      4.16492         0.198139     -0.129212     -0.018585
O	      6.14310      4.12721      4.42870         0.012798     -0.189926      0.065503
O	      6.23659      2.16190      6.22717        -0.145523      0.010224      0.245984
O	      8.07549      3.99920      6.34220        -0.231074      0.342305     -0.027461
O	      2.12789      3.91799      4.26406         0.032401      0.090667      0.417950
O	      4.29375      6.08688      4.24691         0.159037     -0.066386     -0.029435
O	      4.13563      4.15779      6.20340        -0.440097      0.124172     -0.224743
O	      6.15054      6.12319      6.17684        -0.064446      0.527801     -0.131232
O	      6.15174      4.08082      8.16936        -0.013051     -0.001654     -0.103058
O	      2.13343      6.13380      6.07977         0.094182     -0.816890     -0.027103
O	      4.17832      8.19522      6.24642         0.349706     -0.073747      0.159064
O	      3.95400      6.18902      8.23608         0.010960     -0.008042      0.106811
O	      6.17806      8.36822      8.29158        -0.285991     -0.041154     -0.901294
O	      6.10550      6.24688     10.45664         0.075934     -0.347587     -0.019216
O	      8.18138      8.21947     10.49110        -0.545605     -0.220283     -0.226673
