# total energy = -201.90378313 eV
 
CRYSTAL
PRIMVEC
0.055260 6.116951 6.092583 
6.226807 0.028985 6.119226 
4.168917 4.113860 0.001421 
PRIMCOORD
36 1
Li	      0.09181      6.11161      6.09540         0.147266     -0.111538     -0.030777
Li	      6.15436      4.13572      2.04549        -0.004260      0.091394     -0.198350
Li	      4.10446      2.16459      2.11038        -0.076895      0.077883     -0.141833
Li	      4.23965      6.16488     10.12625         0.138591     -0.016412     -0.048034
Li	      2.19642      4.10999      2.10640         0.015116     -0.063493      0.043994
Li	      4.15552      4.11631      3.90077        -0.118450      0.021038     -0.015442
Li	      0.10836      4.10511      4.03157         0.002608     -0.030181      0.189465
Li	      8.30626      6.12963     10.15244         0.022479      0.040529      0.075417
Li	      6.28038      6.12667      8.27028         0.014291      0.024604      0.030549
Cr	      2.07324      4.11889      6.07992        -0.397430      0.250763     -0.048267
Cr	      4.19600      6.13992      6.08865        -0.325182      0.493774     -0.023345
Co	      2.12751      2.09720      0.01715         0.325303     -0.580463     -0.477531
Co	      6.26204      8.17677     10.14624         0.318124     -0.408303     -0.082320
Co	      6.23350      4.09047      6.10262         0.793198      0.073320     -0.542928
Co	      8.35792      8.22760      8.18789        -0.295251     -0.086183      0.460459
Ni	      4.16501      6.12272      2.09078         0.445479      0.051940     -0.072289
Ni	      2.12434      2.03716      4.00400         0.077543      0.080253     -0.411906
Ni	      8.33873      6.08964      6.09753         0.104367      0.009324      0.026527
O	      1.97072      2.02745      1.91797        -0.300872      0.026420      1.196328
O	      4.14836      4.27685      1.96597        -0.044353     -0.286548     -0.018136
O	      4.26837      2.08008      4.07247         0.179537      0.060861     -0.109019
O	      6.23472      4.02563      4.19522        -0.228006      0.075596      0.585410
O	      6.24368      2.19964      5.98908        -0.491585     -0.088355     -0.166042
O	      8.10057      4.07678      6.13692        -0.439161      0.517424      0.146870
O	      2.12018      4.04305      4.16912         0.049816      0.079071     -0.002562
O	      4.29645      6.15073      4.10457        -0.165545     -0.031242      0.216473
O	      4.18500      4.09721      6.25727        -0.024613      0.019676     -0.126015
O	      6.25591      6.09948      6.09378        -0.044849     -0.116670      0.055991
O	      6.10199      3.99637      8.06222        -0.057380      0.178307     -0.200176
O	      8.46721      6.29989      8.12174        -0.276797      0.059133      0.097231
O	      2.22920      6.09867      6.07165         0.097438     -0.369044      0.062596
O	      4.22951      8.13841      6.15658         0.906931     -0.199766      0.106608
O	      4.23537      5.94078      8.07277         0.023275     -0.108887      0.081734
O	      6.47523      8.16997      8.18512         0.124870      0.000812      0.057107
O	      6.27005      6.35393     10.20775        -0.044390      0.133733      0.060679
O	      8.23160      8.22162     10.16502        -0.451212      0.131233     -0.778465
