# total energy = -196.75086874 eV
 
CRYSTAL
PRIMVEC
0.056072 6.182680 6.287315 
6.192907 0.044218 6.298851 
4.152857 4.153892 0.005209 
PRIMCOORD
36 1
Li	      6.14817      0.07930      6.25095        -0.015891      0.026511     -0.138012
Li	      4.25767      8.29582      8.39846         0.040684     -0.022040      0.086163
Li	      6.22400      8.25549     10.47035         0.001205     -0.022112      0.005469
Li	      8.30354      4.22937      8.38730         0.003298     -0.012041     -0.058988
Li	      8.33177      6.20980      6.34524        -0.064020     -0.015876     -0.075223
Li	      6.25316      4.13861      6.29865         0.023468      0.045609     -0.079817
Li	      8.25962      6.19030     10.45326        -0.115943      0.012445     -0.031313
Li	      6.25524      8.27789      6.33137         0.033839     -0.082012     -0.029250
Li	      6.28762      6.29689      8.40613        -0.010097      0.046835      0.009809
Cr	      6.25862     10.31531      8.39533        -0.038513      0.041755      0.157552
Cr	      2.09375      2.09534      4.21278         0.227574     -0.029725      0.198568
Fe	      4.20174      6.20024      6.32367         0.241685     -0.065185      0.100216
Cu	      4.18502      0.06301      4.23439        -0.162882      0.233799     -0.088030
Cu	      6.16688      2.10609      8.34127        -0.079152     -0.136803     -0.136931
Cu	      4.12949      4.12489      4.19625        -0.048303     -0.109091      0.173119
Cu	      6.25695      4.18804     10.46882         0.213488      0.386579      0.106458
Cu	      8.28840      8.25136      8.40218        -0.033836      0.025096     -0.046183
Cu	      8.24058      2.16164      6.31081         0.033153      0.044539     -0.323234
O	      8.36903      6.31135      8.35961        -0.065734      0.037361     -0.015509
O	      4.12489      8.12189      6.20753        -0.250416      0.551603      0.031006
O	      6.31860      8.34979      8.38851         0.048913     -0.004945     -0.039198
O	      6.19355      6.14709     10.48712         0.270620      0.101858     -0.054650
O	      8.40990      8.41041     10.51439        -0.457797     -0.503265     -0.101834
O	      2.01858      2.01769      2.18236         0.084719     -0.037389      0.102065
O	      4.20827      4.19406      2.21660        -0.033288      0.048987      0.111500
O	      4.07643      2.08063      4.23530        -0.040828     -0.119504     -0.070958
O	      6.23732      4.22771      4.12405         0.202806      0.038355     -0.028106
O	      6.29843      2.09784      6.39030         0.359273     -0.036000     -0.090224
O	      8.28522      4.10631      6.18772        -0.020318     -0.182166      0.470754
O	      2.08732      4.07670      4.18612        -0.112241      0.079356     -0.055866
O	      4.22146      6.22494      4.19341        -0.097795      0.241898     -0.114988
O	      4.15093      4.32372      6.15064        -0.123888     -0.750111     -0.105387
O	      6.08006      6.22817      6.21120         0.495392      0.080035     -0.016377
O	      6.13802      4.08491      8.49568        -0.025303     -0.141829      0.161790
O	      2.25663      6.27648      6.38808        -0.603900      0.226084     -0.000864
O	      4.11850      6.15089      8.39287         0.120030      0.001388     -0.013526
