# total energy = -230.94549842 eV
 
CRYSTAL
PRIMVEC
0.025274 6.260004 6.275040 
6.401747 0.012974 6.286896 
4.287443 4.200424 -0.010553 
PRIMCOORD
36 1
Li	     10.64227      4.22253      6.30318        -0.009577      0.003233     -0.007998
Li	      8.53058      2.15194      6.29391        -0.024985      0.019023     -0.021168
Li	      0.04260      2.09843      2.11899         0.017127      0.003544     -0.015645
Li	      8.53356      4.18595      8.34073        -0.024219      0.014159     -0.018046
Li	      4.18021      4.30900      4.15537        -0.007563     -0.036539     -0.040321
Li	      6.49675      4.13717      6.35164         0.019170      0.025485      0.026619
Li	      4.34478      8.29246      4.20234         0.015152      0.023739      0.004648
Li	      2.32391      6.21136      4.22047         0.117106     -0.008120      0.005267
Li	      4.21767      6.32476      6.13851        -0.003723     -0.009977      0.008824
Mn	      2.07976      0.05375      2.03712        -0.026765     -0.021393     -0.028051
Mn	      4.18468      2.14357      2.01140         0.003275      0.044649      0.033436
Mn	      6.41091      2.10645      4.26952        -0.022397      0.008253      0.004697
Mn	      6.30491      6.34644      4.15421         0.001254     -0.013470     -0.006594
Mn	      2.16187      4.20443      6.21976         0.028099     -0.028035      0.019719
Mn	      6.49223      6.23143      8.39766         0.059422     -0.019145      0.001833
Cr	      8.53595      4.20475      4.24231        -0.021274      0.017883     -0.008420
Fe	      4.41770      4.08191      8.38520        -0.110483      0.067111      0.042945
Co	      8.56875      6.29346      6.28073        -0.011497     -0.009254      0.002339
O	      2.13448      2.12344      2.01845        -0.033251      0.009444      0.025097
O	      4.44045      4.01182      2.09142        -0.012915      0.034322     -0.048640
O	      4.10146      2.03534      4.24519        -0.013999      0.017477     -0.081943
O	      6.48165      4.19801      4.06933        -0.011611      0.015148     -0.010212
O	      6.21966      2.13434      6.14114        -0.023674     -0.003022      0.033093
O	      8.54658      4.34991      6.18658        -0.013458      0.037092      0.046109
O	      2.13719      4.10051      4.18293         0.000959      0.008881     -0.035915
O	      4.44101      6.27134      4.18168        -0.044075      0.000937      0.007167
O	      4.14418      4.08321      6.38459         0.009124     -0.016305     -0.084045
O	      6.58586      6.37200      6.40297         0.022172     -0.010899     -0.010780
O	      6.31458      4.32820      8.33725         0.173800      0.006589      0.040552
O	      8.66812      6.32570      8.23291        -0.030529     -0.099487      0.001831
O	      2.18932      6.14895      6.39157        -0.005778      0.008648     -0.046165
O	      4.52340      8.34405      6.36771        -0.026738     -0.010677      0.028027
O	      4.16386      6.34862      8.43084        -0.000063     -0.044016      0.001335
O	      6.51711      8.24911      8.52649         0.041081     -0.013167      0.030513
O	      6.28211      6.36131     10.37414        -0.031992     -0.009949      0.029705
O	      8.56815      8.45582     10.40626         0.002825     -0.012162      0.070189
