# total energy = -236.97429321 eV
 
CRYSTAL
PRIMVEC
-0.000684 6.430502 6.215843 
6.267584 0.010617 6.203996 
4.195624 4.296380 -0.010028 
PRIMCOORD
36 1
Li	      2.09487      8.48529      6.24475        -0.040548     -0.020319      0.011888
Li	      2.07570      6.46430      8.23076        -0.001145     -0.001170     -0.000006
Li	     10.35527      6.48164      8.31494         0.035044      0.009295     -0.009434
Li	      8.37267      4.41148      8.33341         0.028602      0.022881     -0.025693
Li	      4.15200      4.40558      4.07123         0.006049      0.023947     -0.048433
Li	      8.42754      6.40965     10.20209        -0.008774      0.003723     -0.031893
Li	      4.10309      6.43737      6.18272        -0.053968     -0.057421     -0.003678
Li	      8.43119      8.45565      8.28668        -0.021051     -0.079637      0.060747
Li	      6.36660      6.40310      8.29941        -0.002561      0.009394      0.043327
Mn	      0.05097      0.01811      0.04299        -0.129585      0.075194     -0.127355
Mn	      4.14224      8.57000      8.23656        -0.034222     -0.055728      0.031650
Mn	      4.18771      6.44384     10.31448         0.070783      0.012406      0.064348
Mn	      6.36119      8.60575     10.27664        -0.017519      0.007611      0.014943
Mn	      2.05189      2.14230      4.08738         0.162697     -0.045570     -0.048048
Mn	      6.22755      4.31019      6.34338         0.055495      0.019980     -0.007418
Mn	      6.24519      4.25184     10.27262        -0.069844      0.072285      0.014052
Mn	      2.11710      4.32348      6.22253        -0.026157     -0.057553      0.064468
Cr	      8.38062      6.48391      6.28762        -0.000269     -0.118792      0.018626
O	      2.20684      2.12203      2.17195        -0.081408     -0.009247     -0.028806
O	      4.15843      4.10461      1.92441         0.038879     -0.014079      0.081467
O	      4.12625      2.15373      4.20052        -0.101341      0.082633      0.044604
O	      6.30746      4.28466      4.24119         0.054116     -0.008322     -0.000703
O	      6.20783      2.21097      6.19970         0.030423      0.105338      0.057066
O	      8.44825      4.41342      6.07795         0.092772      0.058846      0.017658
O	      2.03276      4.25788      4.26340         0.021672      0.022174     -0.066538
O	      4.34123      6.47061      4.09415        -0.123221     -0.185953      0.018637
O	      4.08847      4.22000      6.25550        -0.051828      0.029251     -0.014466
O	      6.34897      6.45843      6.10750        -0.086584     -0.060661      0.004925
O	      6.27660      4.32975      8.31876         0.018034     -0.004039      0.035346
O	      8.36437      6.42125      8.19935         0.018598      0.028198      0.005511
O	      1.99613      6.31403      6.21630         0.046008      0.110916     -0.016794
O	      4.24843      8.53145      6.09902         0.067244     -0.037738     -0.052293
O	      4.17417      6.60257      8.43442        -0.018148      0.050487     -0.103608
O	      6.13827      8.56751      8.18423         0.003146      0.012991     -0.039585
O	      6.25955      6.48296     10.45883         0.003915      0.067458      0.026283
O	      8.43080      8.65269     10.32995         0.114697     -0.068781      0.009204
