# total energy = -201.62880265 eV
 
CRYSTAL
PRIMVEC
-0.013398 6.145754 6.143503 
6.356054 -0.012897 6.141364 
4.232267 4.089911 -0.002701 
PRIMCOORD
36 1
Li	      8.41378      8.14624     12.26676        -0.029810     -0.019634     -0.051187
Li	      8.25482      4.16894      4.05403         0.048162      0.005186      0.044363
Li	      6.27524      2.16874      4.06917        -0.022129     -0.076804      0.042624
Li	      2.34919      1.91402      4.08951        -0.022966      0.048439      0.056282
Li	      4.36638      3.97926      4.14827        -0.021471      0.020445      0.056597
Li	      4.22835      2.13768      5.89133         0.022809      0.015458      0.040268
Li	      6.27664      4.06364      6.01051        -0.042895      0.028825      0.111173
Li	     10.49292      8.12542     10.23712        -0.012997     -0.017256      0.018705
Li	      8.47813      8.18920      8.24394         0.023680     -0.010786      0.028474
Mn	      2.14777      4.11723      6.12055         0.107791     -0.046810     -0.151314
V	     10.36524      4.18705      6.08248        -0.198935     -0.023558     -0.132753
Fe	      6.36860      6.07140      8.21221         0.117307     -0.075765      0.087781
Co	      2.13908      6.19162      4.14260         0.228149      0.222701      0.095524
Co	      4.25544      6.14189      6.12895        -0.091332      0.011134     -0.275660
Cu	      6.38234      4.12061      2.20788         0.039813     -0.027615      0.026425
Ni	      4.22994      2.01909      2.13251        -0.003966     -0.010121     -0.123264
Ni	      4.24188      6.18229      2.11854        -0.102488      0.098180      0.020928
Ni	      2.08405      4.03777      2.14704        -0.054529      0.190982      0.099471
O	      2.05515      2.02117      2.04852         0.039387     -0.302191     -0.121735
O	      4.15208      4.07814      1.81526         0.114075      0.000017     -0.061496
O	      4.26857      2.02616      4.06111         0.006741     -0.002020      0.111788
O	      6.34885      4.08114      4.09696        -0.037156      0.041694     -0.122201
O	      6.32451      1.85283      6.17003         0.000482     -0.097946     -0.083810
O	      8.64317      4.02192      6.06817         0.097629      0.029708     -0.017785
O	      2.08784      4.25648      4.19679         0.013308      0.047577      0.196527
O	      3.99931      6.14665      4.19180        -0.098703      0.006111      0.170736
O	      4.07010      4.23392      6.14799        -0.059514     -0.150749      0.003398
O	      6.24195      6.27471      6.14481         0.041598      0.101439     -0.041240
O	      6.43259      4.13266      8.12363        -0.142008     -0.017768      0.017604
O	      8.46132      6.08803      8.37482        -0.055833      0.014287     -0.124853
O	      2.18046      6.07578      6.13829         0.088031     -0.078982      0.105347
O	      4.39279      8.21105      6.16545         0.055102      0.164768     -0.051767
O	      4.39689      6.13810      8.03365        -0.129216     -0.081860      0.046400
O	      6.34869      8.16961      8.06756         0.062051      0.144368     -0.108103
O	      6.51920      6.10389     10.36068         0.009916      0.000263      0.071580
O	      8.45056      7.97886     10.27905         0.009916     -0.151716      0.015173
