# total energy = -205.07857416 eV
 
CRYSTAL
PRIMVEC
0.004942 6.022096 6.368243 
6.214215 -0.029839 6.402421 
4.114485 4.007864 0.008993 
PRIMCOORD
36 1
Li	      6.22136      3.97061      2.24967        -0.010446      0.018130     -0.010124
Li	      8.20295      3.99498      4.25647         0.025656     -0.002560      0.002941
Li	      2.04560      4.02059      2.15962         0.011895      0.019950      0.002822
Li	      4.12247      3.96690      4.44119        -0.014759      0.024626      0.057263
Li	      8.15986      5.93695      6.45724         0.024464     -0.015326      0.061510
Li	      6.18538      4.01542      6.33628        -0.001930      0.011561      0.014987
Li	      2.12577      3.94880      6.37063        -0.001876     -0.025220     -0.021232
Li	      4.21289      5.96899      6.44883        -0.051540     -0.018827     -0.008192
Li	      6.18044      6.00946      8.28114         0.003745     -0.046749     -0.065384
Mn	      4.16983      7.98335      8.49847         0.023582      0.021541     -0.090089
V	      4.11674      6.00215      2.14143        -0.012014      0.030805     -0.014121
Fe	      6.20293      5.93021      4.40788        -0.010534      0.124814     -0.141196
Co	      6.23410      0.00790      6.40329        -0.077761     -0.099895      0.063628
Co	      8.28694      2.03144      6.44929         0.077216      0.001457      0.052287
Co	      4.08315      4.06012      8.40554         0.000954      0.000206     -0.216485
Cu	      6.16234      2.05209      4.26717        -0.063546     -0.003449     -0.092707
Cu	      2.05428      5.98316      4.25461         0.123440     -0.082274     -0.012240
Ni	      6.22180      4.02098     10.63797        -0.054018     -0.019057      0.066369
O	      6.28689      6.05938     10.84842        -0.241951      0.126467      0.089707
O	      2.08431      1.99643      2.18980         0.051755      0.002718      0.000010
O	      4.13591      4.05688      1.97034         0.027713     -0.118249     -0.031368
O	      4.09748      2.00311      4.05453         0.127306      0.037796     -0.040548
O	      6.14677      3.99625      4.30341         0.006198     -0.121744     -0.020034
O	      6.33456      1.93948      6.54304        -0.034372     -0.082078      0.016008
O	      8.42877      3.86654      6.39557        -0.015020     -0.025571      0.004350
O	      2.01432      3.97228      4.30990         0.111394      0.054779      0.003714
O	      4.11425      5.97900      4.13753         0.121694     -0.101472      0.007666
O	      4.12508      3.96823      6.64037        -0.015913      0.027184      0.042402
O	      6.21234      5.96872      6.25987         0.057534     -0.016384      0.242346
O	      6.20813      3.83267      8.54522        -0.055522      0.054462     -0.018716
O	      8.38232      5.98391      8.62491        -0.061309      0.016072     -0.100742
O	      1.97409      6.21024      6.25710        -0.013308      0.057115      0.086855
O	      4.02511      8.11982      6.43772         0.016284      0.060592      0.092717
O	      4.14828      6.08859      8.46705        -0.008818      0.014207      0.004319
O	      6.06969      8.01250      8.42062         0.021858      0.045139     -0.020862
O	      8.27586      8.00377     10.42970        -0.088050      0.029234     -0.007859
