# total energy = -195.47317357 eV
 
CRYSTAL
PRIMVEC
0.015328 6.254275 6.160738 
6.273650 0.016454 6.159561 
4.185588 4.171960 0.007595 
PRIMCOORD
36 1
Li	      0.02742      0.09312      0.11059        -0.066277      0.022326     -0.035508
Li	      2.00560      2.01707      0.12145        -0.041798      0.004461      0.058966
Li	      6.22349     10.38881      8.17502        -0.009810     -0.051405      0.054284
Li	      4.20734      2.18707      2.01205        -0.019047      0.023298     -0.033768
Li	      6.23271      2.15746      4.07857        -0.071241      0.110730      0.025122
Li	      0.05955      1.99204      1.98624         0.011108      0.000814     -0.065505
Li	      4.28311      4.14629      4.02881         0.110687     -0.064299     -0.008275
Li	      6.25150      4.11882      6.14785        -0.006678     -0.086823     -0.080474
Li	      8.28788      8.38705      8.16856        -0.028632      0.024983      0.006364
Mn	      4.24790      2.12383      6.17580         0.356568      0.020868     -0.222067
V	     10.37848      8.35204     10.32128        -0.008259      0.207631      0.090066
Fe	      8.26267      4.22783      4.06095        -0.194067     -0.049742      0.131159
Cu	      2.11311      2.06936      4.04811        -0.117029      0.088780      0.138477
Ni	      2.15816      4.13310      2.03824        -0.106250      0.023078     -0.189328
Ni	      2.11979      6.24603      4.12531        -0.102163      0.008744     -0.027386
Ni	      2.13833      4.20268      6.21016        -0.093840      0.055716      0.091804
Ni	      4.19563      6.19472      6.24045         0.037726     -0.000093      0.099972
Ni	      6.27679      6.27971      8.22930         0.152861      0.091718     -0.126889
O	      2.12093      2.22432      2.12370        -0.012959     -0.027299     -0.371895
O	      4.01593      4.16781      2.07363         0.284729     -0.010404      0.067149
O	      4.12087      2.06424      4.22770         0.242902      0.039757      0.140879
O	      6.31344      4.28781      4.03580         0.214825     -0.326039      0.014424
O	      6.09760      2.13097      6.10472        -0.025523      0.013952      0.076242
O	      8.35061      4.33831      6.09682        -0.075001      0.007392     -0.021054
O	      1.97890      4.15367      4.17869         0.220088      0.320713      0.118938
O	      4.23392      6.42112      4.14990         0.322216     -0.121122     -0.074006
O	      4.17855      4.06862      6.17930         0.048502     -0.031489     -0.007431
O	      6.35929      6.32254      6.10544        -0.079444     -0.059296      0.280794
O	      6.45696      4.20490      8.41284        -0.116805     -0.056007      0.086324
O	      8.34598      6.14688      8.15825         0.020654      0.071309     -0.196244
O	      2.17820      6.19811      6.13798        -0.079758     -0.013308      0.259995
O	      4.24086      8.29756      5.99726        -0.030007      0.018012     -0.053995
O	      4.28710      6.24813      8.28252        -0.068853     -0.034263     -0.093080
O	      6.28507      8.28055      8.15530         0.001982      0.031261     -0.090647
O	      6.29749      6.10035     10.29030        -0.565458     -0.115878     -0.042178
O	      8.54031      8.36803     10.26880        -0.105948     -0.138073     -0.001232
