# total energy = -223.76551120 eV
 
CRYSTAL
PRIMVEC
-0.014726 6.374811 6.238868 
6.269338 -0.013290 6.237438 
4.164597 4.233965 0.005842 
PRIMCOORD
36 1
Li	     10.29239      4.28045      6.31151         0.058779     -0.019439     -0.030249
Li	      8.30069      2.26439      6.26966         0.028926     -0.068448     -0.017374
Li	      4.06374      2.17229      2.13939        -0.021718      0.031816      0.019570
Li	      8.31481      4.32812      4.35399         0.039859     -0.013084     -0.076461
Li	      4.18572      6.28875      2.07520        -0.033512      0.074921      0.085904
Li	      2.17573      2.14233      4.12530         0.013143      0.028477      0.077502
Li	      4.14923      4.18444      4.17897         0.054377     -0.017981      0.061827
Li	      4.30016      1.94685      6.16500        -0.003344      0.040120     -0.015396
Li	      6.41356      4.09868      6.21377        -0.072893     -0.055325     -0.033974
Mn	      6.18608      2.11773      4.21597         0.059637     -0.049912      0.063322
V	      6.28162      6.31691      8.27397         0.185967      0.237976      0.086471
Cr	      6.07765      4.38105      2.14748         0.128422     -0.069552     -0.021424
Cr	      2.06162      4.26513      6.20645         0.033601      0.047319      0.153748
Cr	      4.14478      6.39151      6.23221        -0.000983     -0.051508      0.248518
Cr	      4.18615      4.22655      8.27951         0.048077     -0.032696     -0.120366
Co	      4.13065      8.47611      4.19268         0.138188      0.048846      0.140862
Cu	      2.16347      4.18225      2.02468         0.081810     -0.057593      0.185445
Cu	      2.11470      6.36291      4.13694        -0.150628     -0.007557      0.034920
O	      8.35819      4.19467      6.37700         0.014608      0.005226     -0.063722
O	      2.03686      1.96547      2.15461         0.073767      0.029257     -0.008554
O	      4.26365      4.28320      2.09941        -0.228159     -0.062338      0.000922
O	      4.34220      2.10548      4.15049        -0.002860     -0.036606      0.005558
O	      6.33775      4.03922      3.98656        -0.001543     -0.018877      0.091855
O	      6.29691      2.09976      6.01998        -0.017474     -0.011549     -0.046887
O	      2.04769      4.35932      4.17248        -0.183826     -0.074414     -0.235202
O	      4.06453      6.41033      4.27034         0.124766      0.161543     -0.331709
O	      4.08198      4.37168      6.29408        -0.050194      0.031059     -0.099934
O	      6.16572      6.46369      6.34204        -0.004683      0.043845     -0.322897
O	      6.20717      4.38693      8.32443        -0.208252     -0.303548      0.447919
O	      8.18870      6.45400      8.16466        -0.096744      0.188317     -0.192805
O	      2.15684      6.25557      6.49649        -0.020983     -0.022771      0.101336
O	      4.24364      8.40199      6.24528        -0.095039      0.040310     -0.611128
O	      4.22690      6.26311      8.27340         0.157405     -0.018365      0.033686
O	      6.30855      8.41959      8.30381        -0.012114     -0.027839      0.001864
O	      6.27058      6.46685     10.21910        -0.072862     -0.020833      0.204982
O	      8.26228      8.35728     10.29072         0.036480      0.031204      0.181869
