# total energy = -224.59440498 eV
 
CRYSTAL
PRIMVEC
0.017442 6.340822 6.220528 
6.197591 0.024654 6.213234 
4.139629 4.230478 0.008645 
PRIMCOORD
36 1
Li	      2.07559      2.11965      0.10005        -0.034443      0.006972      0.063523
Li	      2.02992      0.07992      2.03251        -0.014983      0.119482      0.012944
Li	      4.11602      2.13885      2.04972        -0.043443     -0.039358     -0.008204
Li	      2.09986      4.18138      2.04515         0.024187     -0.050968     -0.008567
Li	      4.12614      4.24639      4.19630         0.038862     -0.012172     -0.016490
Li	      4.13350      2.27780      6.22259         0.018014     -0.008950     -0.009986
Li	      6.10847      4.22868      6.27521        -0.041067     -0.039301     -0.025440
Li	      4.13475      6.23737      6.29474         0.000190     -0.003137      0.071401
Li	      4.14407      4.23398      8.17211         0.030034     -0.001494      0.034304
Mn	      6.16217      2.17964      4.13224        -0.012650      0.125893     -0.142753
V	      8.16779      4.29813      4.16789        -0.074990     -0.056341     -0.165383
Cr	      4.16532      4.22539      0.06296        -0.033770      0.009151     -0.166266
Cr	      4.16399      8.41856      4.14826        -0.040312      0.170847      0.046123
Cr	      2.15639      6.30456      4.15892        -0.169681     -0.002744     -0.132016
Cr	      6.25394      6.33640      8.21181         0.075557     -0.054416      0.150558
Co	      6.20555      2.14234      8.22859        -0.030686     -0.320286      0.157457
Ni	      2.06102      2.15916      4.13717         0.071260     -0.082905      0.025474
Ni	      2.12192      4.24431      6.25486        -0.095178      0.039792      0.073601
O	      4.00232      4.25844      6.20578         0.182237      0.003717      0.017850
O	      1.86614      2.11915      2.11259         0.089340      0.090923     -0.160760
O	      4.14089      4.34944      1.97030        -0.058605      0.665247      0.297858
O	      4.14641      2.00502      4.11885         0.161134      0.039821     -0.032245
O	      6.28996      4.28988      4.17994        -0.059101     -0.062256     -0.014847
O	      6.20104      2.02796      6.08660        -0.052686      0.140566      0.623601
O	      8.37945      4.19797      5.99835         0.059498     -0.012016      0.115882
O	      2.02524      4.28360      4.16286        -0.037795      0.048731     -0.026463
O	      4.11686      6.45007      4.16306         0.009261     -0.171247     -0.892679
O	      6.20737      6.49483      6.27631         0.021547     -0.051383     -0.002599
O	      6.21679      4.27138      8.34295         0.050565     -0.325203     -0.082139
O	      8.35106      6.34950      8.37265        -0.138703     -0.002222      0.019481
O	      2.05476      6.24226      6.15912         0.037073      0.034323      0.030850
O	      4.26861      8.55540      6.17645        -0.013611     -0.071923      0.052062
O	      4.27061      6.32114      8.50630         0.046561     -0.002688     -0.064276
O	      6.21797      8.34224      8.40812        -0.008547     -0.040209      0.136266
O	      6.26595      6.26872     10.33347         0.076751     -0.072340     -0.008249
O	      8.27911      8.43017     10.39751        -0.031820     -0.011909      0.030124
