# total energy = -235.06599875 eV
 
CRYSTAL
PRIMVEC
0.083278 6.379797 6.206225 
6.406266 0.057460 6.232421 
4.309350 4.308776 -0.000440 
PRIMCOORD
36 1
Li	      4.33568      4.33131      0.06181         0.010543      0.033526      0.019787
Li	      4.53966      8.69389      8.27880         0.076456      0.043198      0.032267
Li	      6.33434      2.18472      4.12504        -0.063422      0.043322     -0.029998
Li	      8.68697      4.40849      8.26748         0.050788      0.014837     -0.016634
Li	      4.25970      4.21633      4.12250         0.030999     -0.072104     -0.027294
Li	      4.31649      2.15929      6.22557         0.009747     -0.005092     -0.008266
Li	      2.17494      6.31535      4.15033        -0.005003     -0.007821      0.041173
Li	      6.51237      8.61103      6.28177         0.052149      0.018684      0.023282
Li	      6.57373      6.58022      8.22332         0.000279      0.108529     -0.000601
Mn	      4.25118      6.32902      2.07002         0.043091     -0.236144     -0.130185
V	      0.11867      4.32805      4.15593        -0.180312      0.506162      0.095857
Cr	      8.53537      2.20265      6.22021        -0.042354     -0.214202      0.149149
Cr	      6.45480      4.30982      6.21945        -0.025381     -0.058388     -0.132047
Cr	      4.34611      6.42947      6.25374        -0.163878     -0.058825      0.173800
Cr	      8.58043      8.53027      8.30680        -0.297786      0.055871     -0.006064
Fe	      4.27803      0.13115      4.11678         0.005279      0.016191     -0.058788
Fe	      2.23275      2.23096      4.13443         0.097973     -0.218363     -0.102584
Co	      6.45689     10.61519      8.28763        -0.218757      0.026754     -0.087473
O	      1.97741      2.09371      2.04916        -0.128360      0.129164      0.083474
O	      4.27968      4.40387      2.08515        -0.029842      0.201756      0.028542
O	      4.21913      2.10993      4.11525        -0.141446     -0.121281      0.032623
O	      6.51348      4.43204      4.18880         0.124401      0.158366      0.190231
O	      6.53446      2.28108      6.14007         0.037981      0.163444     -0.004189
O	      8.48745      4.24903      6.14326        -0.075586     -0.042171     -0.023790
O	      2.05421      4.20564      4.16480        -0.109492     -0.035859      0.013198
O	      4.41012      6.59349      4.23824         0.053573      0.295251      0.039034
O	      4.41493      4.38686      6.29755         0.119468      0.104928     -0.040725
O	      6.39114      6.35132      6.18279        -0.060416     -0.095917     -0.035192
O	      6.36016      4.15213      8.32236         0.034118     -0.061488      0.037568
O	      8.70355      6.51677      8.30012         0.094147      0.115821      0.013774
O	      2.31660      6.50210      6.21831         0.183128      0.194779     -0.117438
O	      4.28693      8.48435      6.15226        -0.035119     -0.055686     -0.123351
O	      4.32997      6.29334      8.30456         0.137152     -0.140260      0.013939
O	      6.59019      8.58435      8.31397         0.250208     -0.209871     -0.007039
O	      6.43081      6.23963     10.35936        -0.056955     -0.669381     -0.016263
O	      8.75690      8.65888     10.37119         0.222629      0.072269     -0.019779
