# total energy = -238.80964668 eV
 
CRYSTAL
PRIMVEC
0.027509 6.169202 6.376436 
6.317265 0.005615 6.398840 
4.211680 4.127471 0.003589 
PRIMCOORD
36 1
Li	     10.48752     10.22757     12.76183         0.023096      0.005449      0.011952
Li	      8.52507      8.31218     12.71832         0.020184     -0.037916      0.004034
Li	      4.19878      8.27105      8.39544        -0.064398     -0.016693      0.040040
Li	      8.50961     10.25818     10.74755        -0.027461      0.010015     -0.027597
Li	      6.35791      2.02821      4.36441         0.008724      0.051180     -0.009334
Li	      6.34889      2.04939      8.35276         0.025665     -0.066487     -0.115884
Li	      6.40135      4.00607      6.40637         0.010903     -0.029184     -0.031405
Li	     10.46430      8.31344     10.78547         0.023699      0.002996      0.025426
Li	      6.20263      8.26530      6.42836         0.018879      0.060244      0.019707
Mn	      4.31983      2.01196      6.35154         0.048288     -0.046624     -0.031693
Mn	      8.37922      6.21944     10.71407         0.052748      0.043527      0.085835
Mn	      6.31536      6.23421      8.54323        -0.020823      0.084092     -0.015304
V	      6.28947     10.28050      8.45085        -0.116865      0.020539      0.018976
Cr	      8.44456      4.09667      8.47539        -0.012508     -0.033911      0.016224
Cr	      4.23275      4.11342      4.26214         0.008916     -0.038039      0.068045
Cr	      4.23344      6.25056      6.41543        -0.041136      0.020099     -0.003928
Cr	      4.29195      4.09643      8.51868         0.038551      0.011892     -0.025135
Fe	      6.33156      6.17794      4.27540        -0.049811      0.002066     -0.015190
O	      2.02576      2.07411      2.25546         0.018576      0.114197     -0.035913
O	      4.16212      4.10950      2.26068        -0.085915      0.005413      0.129505
O	      4.07345      2.12436      4.26118         0.092270     -0.007671      0.041173
O	      6.24188      4.19474      4.12908        -0.172195     -0.048917      0.082529
O	      6.16926      2.02832      6.34628        -0.063227     -0.038327     -0.003898
O	      8.43331      4.15068      6.51239        -0.017737      0.019766     -0.020611
O	      2.19127      4.17910      4.17206        -0.014076      0.045059     -0.040935
O	      4.26016      6.13462      4.41470        -0.141675     -0.038500     -0.010249
O	      4.25867      4.10853      6.39086         0.025143      0.055497      0.008665
O	      6.36316      6.21002      6.41740         0.011940      0.003308      0.023978
O	      6.35793      4.26743      8.50628         0.016468      0.005335      0.000485
O	      8.51790      6.17291      8.53197        -0.046638      0.028166     -0.023518
O	      2.20976      6.20111      6.46361         0.138710     -0.014720     -0.093105
O	      4.24484      8.17104      6.40513        -0.019774      0.010033     -0.030237
O	      4.17178      6.09168      8.44404         0.028490     -0.021291     -0.084755
O	      6.47649      8.25395      8.50565         0.172641     -0.142739      0.006390
O	      6.38708      6.18937     10.47231         0.109092      0.007190      0.031834
O	      8.46151      8.11369     10.51805         0.001256     -0.025046      0.003895
