# total energy = -220.50812054 eV
 
CRYSTAL
PRIMVEC
-0.006645 6.114381 6.384676 
6.208964 -0.004900 6.383248 
4.150382 4.086512 -0.014505 
PRIMCOORD
36 1
Li	      4.10961      2.06156      2.17111         0.035658     -0.012926      0.006486
Li	      4.16014      0.06287      4.31184        -0.016582      0.015410     -0.056631
Li	      6.09520      1.98152      4.27455        -0.039196      0.008799     -0.083002
Li	      8.30964      4.09255      8.48395        -0.019294      0.011903     -0.021026
Li	      4.13986      4.06535      4.29458         0.001597     -0.000738      0.031926
Li	      4.15967      2.04026      6.25349        -0.027525      0.024287     -0.100097
Li	      4.14756      8.14517      4.32440        -0.007385     -0.003352      0.080021
Li	      2.08102      4.07087      6.34837         0.024557     -0.015865      0.058672
Li	      4.18608      4.03650      8.50382        -0.004248      0.032020     -0.008998
Mn	      6.26135     10.10264      8.57330         0.034505     -0.091528      0.038387
V	      2.13961      6.12267      4.24477        -0.007038      0.003892     -0.044636
V	      6.16783      4.02713      6.27811        -0.026602      0.004647      0.013707
V	      6.18638      6.17818      8.53807         0.013106     -0.034743     -0.036845
Fe	     10.23155      3.99738      6.40044         0.125781      0.088407     -0.150365
Fe	      2.17138      2.20380      4.19231        -0.189065     -0.050131      0.083770
Co	      4.15644      6.12501      6.40388         0.004089     -0.039708     -0.028787
Cu	     10.30505      6.14434      8.48203        -0.046760      0.018357     -0.008593
Ni	      8.26481      2.02922      6.37807        -0.024448     -0.014812      0.039381
O	      1.91365      2.05833      2.22542         0.088441      0.017905     -0.046922
O	      4.15154      4.15427      1.94019        -0.030905     -0.028800      0.144995
O	      4.02977      2.08782      4.22793         0.138349     -0.015970     -0.063800
O	      6.24441      4.16472      4.41362        -0.011509      0.000143     -0.015724
O	      6.19727      2.05156      6.25892        -0.053208      0.000868     -0.063962
O	      8.26891      4.06186      6.32115        -0.041462      0.088941      0.000855
O	      2.07723      4.18466      4.29884        -0.009205      0.050340     -0.028737
O	      4.14518      6.12858      4.46816         0.043074      0.016776      0.131780
O	      4.27078      4.18186      6.39125         0.035957      0.021302      0.032683
O	      6.10655      6.09324      6.41491         0.005890      0.000781      0.003440
O	      6.25600      4.18570      8.27052        -0.017857      0.064163      0.021428
O	      8.29240      6.11101      8.65536        -0.075617      0.010615      0.082216
O	      2.13666      6.09400      6.33329        -0.078348     -0.072198     -0.031788
O	      4.08588      8.15100      6.41104         0.141120     -0.070198      0.034378
O	      4.23664      6.09066      8.38662         0.000777     -0.003367     -0.002314
O	      6.24706      7.97601      8.49632         0.014827      0.012150      0.012709
O	      6.27930      6.04713     10.53891        -0.019566      0.018371      0.043175
O	      8.28326      7.94155     10.67315         0.038093     -0.055739     -0.067782
