# total energy = -93.36521101 eV
 
CRYSTAL
PRIMVEC
2.098933 4.158598 2.059632 
4.101326 -2.043528 -2.034210 
0.009781 4.149679 -4.111248 
PRIMCOORD
16 1
Li	      2.06811      2.07678      0.00910        -0.012994     -0.017267      0.015729
Li	      4.05926      2.13375     -2.04358         0.016257     -0.061464      0.011971
Li	      2.07170      4.13989     -2.03606        -0.026956      0.005661      0.006360
Li	      4.16592      4.11616     -4.05556         0.008275      0.038744     -0.040648
Mn	      0.01323      4.12141     -4.07665        -0.345415      0.109050     -0.193042
Mn	      4.12975      4.16220      0.00197         0.169880      0.143410      0.238833
Ni	      6.17309      4.18282     -2.03319         0.211110     -0.011819      0.043575
Ni	      2.05134      2.06785     -4.06516        -0.060346     -0.047974     -0.166829
O	      4.11001      4.16278     -1.89486        -0.129963     -0.077905     -0.125708
O	      4.11445      2.08798     -4.20328         0.203509      0.062121     -0.082299
O	      4.25255      2.20342      0.02156         0.159305     -0.119820     -0.020837
O	      3.96213     -0.08137     -2.02897         0.088155     -0.221921      0.150156
O	      2.19974      4.14066      0.10670        -0.091313     -0.103303      0.153750
O	      2.05046      1.91377     -2.03949        -0.009088     -0.074281      0.191561
O	      2.09319      6.37055     -2.03474        -0.175265      0.186456     -0.118609
O	      1.94371      4.14325     -4.18099        -0.005151      0.190311     -0.063964
