# total energy = -227.03134166 eV
 
CRYSTAL
PRIMVEC
0.021697 6.333039 6.348312 
6.178223 0.021069 6.349370 
4.125842 4.229693 0.007035 
PRIMCOORD
36 1
Li	      4.12773      4.22800      0.02575         0.036440     -0.000365      0.027516
Li	      2.05313      2.11903      0.03142        -0.023162     -0.011028     -0.027610
Li	      6.15366      4.25243      2.13732        -0.013573      0.014601     -0.000673
Li	      6.18285      2.12503      4.25685         0.002575     -0.047307      0.000890
Li	      2.06479      4.15666      2.15702        -0.026933     -0.023934      0.056314
Li	      2.06176      2.12813      4.22301        -0.039285     -0.019260     -0.025276
Li	      6.18685      4.22185      6.36483         0.026214      0.007074      0.046583
Li	      4.16284      8.45557      4.30416        -0.019676      0.026124      0.060522
Li	      6.14567      8.42009      6.34424         0.013705      0.012847     -0.016408
Mn	      0.09852      2.12007      2.07213         0.024979     -0.003739     -0.053683
V	      8.13231      4.20137      4.36306         0.054283     -0.052683      0.099412
V	      2.03483      6.28234      4.35422         0.061634      0.109329      0.213813
V	      6.21634      6.32807      8.45948         0.069579      0.042336     -0.150026
Fe	      4.03369      2.18329      2.01154         0.240768     -0.229847     -0.023666
Fe	      4.18004      4.16625      4.24059         0.014076      0.044109      0.029208
Fe	      4.09428      4.27954      8.42981         0.051089      0.060051     -0.044328
Co	      4.15281      2.16133      6.30856        -0.079463     -0.082940     -0.010088
Co	      4.21696      6.39208      6.29508         0.018390      0.035346     -0.108579
O	      2.06259      2.14205      2.08686        -0.198809     -0.042453      0.046998
O	      4.15831      4.12689      2.21655        -0.054769      0.155110      0.027363
O	      4.10097      2.07938      4.15850        -0.027051     -0.013470      0.087634
O	      6.21894      4.21488      4.25005         0.018895     -0.004912      0.014418
O	      6.13611      2.09872      6.52917         0.016957      0.029302      0.084592
O	      8.29265      4.26785      6.13002        -0.045318      0.003378     -0.077470
O	      2.14743      4.38478      4.22227        -0.014378     -0.040326     -0.014578
O	      4.09099      6.26311      4.11370         0.014171     -0.023851     -0.042490
O	      4.12125      4.29015      6.32643         0.008402     -0.031159     -0.004099
O	      6.24262      6.33086      6.47163        -0.018119      0.045235      0.049495
O	      6.09898      4.33110      8.46067         0.181207      0.091233      0.015610
O	      8.31118      6.46382      8.61334         0.097636     -0.112444     -0.033257
O	      2.11169      6.40312      6.12602        -0.028166     -0.016820     -0.151562
O	      4.13971      8.39018      6.44112         0.007958     -0.029213     -0.087428
O	      4.13043      6.34246      8.60861        -0.077346      0.110297      0.057694
O	      6.22363      8.35332      8.44281        -0.225292     -0.030020      0.033615
O	      6.22050      6.33228     10.51071        -0.086356      0.025077     -0.048961
O	      8.21985      8.52486     10.50784         0.018739      0.004322     -0.031492
