# total energy = -216.97840133 eV
 
CRYSTAL
PRIMVEC
-0.022060 6.389811 6.067361 
6.188101 -0.031784 6.077426 
4.114665 4.255621 -0.010819 
PRIMCOORD
36 1
Li	      2.07367      8.43284      6.14732        -0.093460     -0.093609      0.018949
Li	      2.15781      6.43884      8.09069        -0.039527     -0.020963      0.099115
Li	      4.05702      1.98047      2.09500         0.068691     -0.068666      0.059620
Li	      4.13056      6.37527      9.94121        -0.016934      0.023745      0.021498
Li	      4.17491      6.32163      2.10507        -0.033709     -0.056485     -0.024497
Li	      4.15730      4.22740      3.93394         0.099736     -0.143165     -0.046062
Li	      8.25553      6.36063     10.08448        -0.073061      0.009717     -0.055479
Li	      4.10418      4.41303      8.11848        -0.046797      0.096539     -0.041557
Li	      6.00870      6.38755      8.16484         0.004662      0.028910      0.027861
Mn	      4.11125      4.22411      0.02264        -0.085042      0.092567     -0.010436
Mn	      6.12822      8.57520      6.12952         0.093327     -0.143940      0.193975
V	      6.28150      8.48345     10.00652        -0.058908      0.013398      0.014180
V	      8.24799      6.37687      6.12437         0.030791      0.098451      0.020572
V	      6.21032      4.22291      6.14103         0.007722     -0.007900     -0.188447
Co	     10.25016      8.48500     10.09634        -0.217761      0.143584     -0.051324
Cu	      2.12836      4.17027      2.09122        -0.118588      0.104410      0.068531
Cu	      2.01825      2.07895      3.94845         0.083659     -0.073762      0.039324
Ni	      4.01719      6.44101      6.10976         0.056047     -0.163338     -0.075073
O	      2.06463      2.21830      2.08894         0.028963     -0.010044     -0.022151
O	      4.05319      4.26519      1.92913         0.176726     -0.003923      0.163629
O	      4.32796      2.12016      4.16218        -0.129783     -0.005094     -0.191897
O	      6.19072      4.06211      4.21382         0.025824      0.047585     -0.234966
O	      6.14810      2.21585      6.02414         0.195566     -0.086637      0.058339
O	      8.20222      4.39021      5.96922         0.196659     -0.099686     -0.163015
O	      1.85130      4.33367      4.20507         0.074030      0.174160      0.012721
O	      4.10561      6.61779      4.08231        -0.131419      0.019849     -0.192892
O	      4.20046      4.14213      6.06106        -0.135832      0.074692     -0.055470
O	      6.25840      6.26448      5.93209        -0.147657      0.135210      0.027233
O	      6.23464      4.24392      8.00861         0.048851      0.022664      0.349054
O	      8.24511      6.28941      7.89749         0.011427     -0.102524      0.273091
O	      1.94475      6.31525      6.11902        -0.114634      0.225211      0.007665
O	      4.02870      8.49504      5.89923        -0.091360      0.011335      0.009521
O	      4.09978      6.36581      8.02813        -0.036677      0.021482      0.150953
O	      6.15379      8.42662      8.10802         0.005770     -0.066259     -0.179889
O	      6.16594      6.37880     10.21871        -0.028380     -0.188723     -0.081424
O	      8.11161      8.45490     10.09794         0.391077     -0.008793     -0.001254
