# total energy = -93.39745434 eV
 
CRYSTAL
PRIMVEC
2.120028 4.200392 2.080331 
4.142545 -2.064065 -2.054654 
0.009880 4.191385 -4.152567 
PRIMCOORD
16 1
Li	      2.10989      2.11874      0.00928         0.003877      0.012020     -0.018401
Li	      4.14127      2.17685     -2.08487        -0.043649      0.079710     -0.002876
Li	      2.11355      4.22352     -2.07720         0.020918     -0.003183     -0.010913
Li	      4.25007      4.19931     -4.13749         0.018099     -0.058241      0.030314
Mn	      0.00361      0.01328     -0.00643         0.341293     -0.131326      0.226454
Mn	      2.09315      0.04589     -2.07833        -0.117906     -0.086119     -0.220812
Ni	      0.03522      2.13099     -2.09994        -0.197810     -0.016181     -0.004729
Ni	      2.09278      2.10963     -4.14729         0.050808      0.062802      0.120063
O	      4.19304      4.24687     -1.93314        -0.074418     -0.114478      0.211370
O	      4.19756      2.13016     -4.28819         0.005913      0.130303     -0.037311
O	      4.33846      2.24793      0.02200        -0.082248      0.149998     -0.213604
O	      4.04217     -0.08301     -2.06995        -0.178204      0.170988      0.085024
O	      2.24418      4.22432      0.10885         0.153540     -0.081883     -0.130495
O	      2.09189      1.95243     -2.08069         0.207344     -0.046976      0.045974
O	      2.13548      6.49925     -2.07584        -0.033936     -0.072807     -0.113117
O	      1.98298      4.22695     -4.26546        -0.073620      0.005372      0.033061
