# total energy = -215.32630150 eV
 
CRYSTAL
PRIMVEC
-0.016056 6.390085 6.308961 
6.188108 -0.038644 6.330637 
4.113671 4.262203 -0.013047 
PRIMCOORD
36 1
Li	      2.09570      8.47791      6.33718        -0.015811     -0.018288      0.015407
Li	      6.30903     10.56168      8.56622        -0.079856      0.049468     -0.007089
Li	      4.19448      8.37641      8.61533         0.014186      0.009436     -0.002632
Li	      6.08396      2.28458      4.20097         0.094950      0.029402      0.009000
Li	      6.29932      6.23214      4.31407        -0.064470      0.007084     -0.008948
Li	      4.03597      2.17071      6.19971         0.035465      0.007750      0.047595
Li	      6.11040      4.33038      6.20966        -0.026731      0.034473      0.064693
Li	      4.11040      6.33545      6.49166        -0.012043     -0.009355     -0.017295
Li	      4.02706      4.46500      8.28751         0.032986      0.028870     -0.009650
Mn	      0.02748      6.36487      6.27748        -0.050248      0.017905      0.058479
Mn	      6.20756      8.49685      6.35662         0.014461      0.032184      0.036146
V	      6.17676      2.05731      8.38927        -0.034365      0.062031     -0.063979
V	      2.08719      4.15912      2.05594        -0.022163     -0.041356      0.045614
V	     10.17375      8.45438     10.47625        -0.009583     -0.105834     -0.103544
Cu	      6.09448      6.47322      8.36937         0.172129      0.016341     -0.043998
Ni	      4.03655      0.12018      4.14072         0.085058     -0.118038      0.187100
Ni	      4.21748      4.10169      4.27806        -0.079288      0.157972     -0.109354
Ni	      8.20102      6.33695     10.51005         0.064150      0.019433     -0.057139
O	      4.17153      6.40235      8.45539        -0.159903      0.026545     -0.081887
O	      1.98503      2.31236      2.13082         0.134767     -0.052171     -0.020855
O	      4.02681      4.35928      2.20304         0.048779     -0.137577     -0.009256
O	      4.17034      2.10373      4.26139        -0.016799     -0.003508     -0.018144
O	      6.19251      4.23618      4.30405         0.073180      0.014074     -0.065054
O	      6.23242      1.92705      6.56328         0.029763     -0.026571     -0.133954
O	      8.40181      4.18626      6.47231        -0.082017     -0.076640     -0.078860
O	      1.91575      4.26755      4.16497         0.002013     -0.046994      0.051417
O	      4.06969      6.46946      4.00327         0.096356      0.009789      0.073046
O	      3.95631      4.28878      6.25914        -0.013946      0.020949      0.182742
O	      6.12518      6.61630      6.38104         0.022374      0.011039     -0.095940
O	      6.24755      4.03718      8.45350        -0.121244     -0.008869      0.012348
O	      8.25269      6.11120      8.46149        -0.074042     -0.027755     -0.056956
O	      1.95373      6.28162      6.19922         0.075842     -0.038115      0.127341
O	      4.18030      8.63874      6.10963         0.008771      0.015628      0.088657
O	      6.16584      8.64925      8.17633         0.009332      0.110622      0.001084
O	      6.15182      6.18809     10.41212        -0.059945     -0.028557     -0.003036
O	      8.38225      8.43035     10.50632        -0.092110      0.058635     -0.013101
