# total energy = -225.32662179 eV
 
CRYSTAL
PRIMVEC
0.025771 6.380863 6.205832 
6.311415 0.017730 6.213924 
4.217311 4.268930 0.002161 
PRIMCOORD
36 1
Li	      4.26055     10.57850      6.25978         0.024127     -0.061828     -0.030366
Li	      2.16137      6.39173      8.20507         0.008467     -0.023268     -0.031602
Li	      4.22806      8.51108      8.22818         0.006723      0.024092     -0.020511
Li	      4.20589      4.24549      4.10714         0.051500      0.015534     -0.028065
Li	      8.38015      6.42625      6.22136         0.014338      0.045342      0.044422
Li	      6.32035      8.47314      6.27439        -0.034229     -0.018213      0.054727
Li	      4.28301      6.42146      6.33800         0.025550      0.006343      0.053802
Li	      4.16102      4.34375      8.24375        -0.045335      0.069306     -0.010207
Li	      6.28500      6.44625      8.19097        -0.001676      0.037660      0.005295
Mn	      2.19244      4.24600      2.02830         0.049289      0.061374     -0.010555
Mn	      0.04658      4.25735      4.16353        -0.036533     -0.077153      0.062162
V	      6.26560      8.51716     10.24808        -0.013654      0.083138     -0.086952
V	      2.18423      6.36097      4.23258         0.032643      0.024248      0.001024
V	      6.21440      4.36015      6.21569        -0.256744     -0.070439      0.125516
Fe	      4.21350      6.45396     10.21662        -0.009922     -0.088532      0.123506
Co	      2.18027      8.48415      6.24743        -0.003128     -0.044201      0.035891
Co	      4.24161      6.31830      2.02797        -0.034882     -0.076365     -0.050291
Ni	      2.13637      2.16517      4.17227        -0.062008      0.033740      0.063604
O	      2.11451      2.23410      2.14042        -0.006692      0.053413     -0.168269
O	      4.08237      4.28639      2.01178         0.047678      0.068012      0.076777
O	      4.28868      2.06956      4.16630         0.032788      0.108018     -0.000993
O	      6.33162      4.23789      4.20375         0.016798     -0.060277      0.003556
O	      6.37622      2.26010      6.06402         0.013396      0.007433     -0.098519
O	      8.24432      4.24055      6.11349         0.049351      0.004954     -0.062914
O	      2.08367      4.33771      4.23296        -0.029091      0.017498      0.036968
O	      4.15395      6.42323      4.13742         0.014972     -0.029715      0.046452
O	      4.44637      4.21633      6.28608         0.104443      0.012238     -0.028574
O	      6.35556      6.28278      6.17281        -0.016969     -0.089855      0.050750
O	      6.49080      4.24116      8.31741        -0.045926      0.001074      0.027630
O	      8.43437      6.29472      8.48776         0.032979     -0.091711     -0.075719
O	      2.12173      6.38980      6.04601        -0.001387      0.033510      0.058052
O	      4.19129      8.54382      6.04140        -0.003807      0.009690     -0.048994
O	      4.22335      6.37699      8.37200         0.016193      0.049644     -0.157981
O	      6.34248      8.57402      8.47422        -0.015874     -0.020262      0.040711
O	      6.35349      6.51245     10.37780         0.026788     -0.050666      0.010665
O	      8.42015      8.44787     10.30239         0.049831      0.036223     -0.010999
