# total energy = -201.74768250 eV
 
CRYSTAL
PRIMVEC
-0.062263 6.253975 6.235794 
6.190838 0.009454 6.164258 
4.137139 4.131432 -0.003569 
PRIMCOORD
36 1
Li	     10.22361      6.37400      8.34510        -0.022411     -0.061289      0.006914
Li	      8.13523      4.20555      8.33388         0.050171      0.031037     -0.008763
Li	      6.09844      6.32519      4.16284        -0.028845      0.063809     -0.030311
Li	      3.98763      4.25432      4.19687        -0.037336      0.029436     -0.031802
Li	      0.00214      4.11806      4.07597        -0.004911     -0.006250      0.054627
Li	      2.01589      4.15264      6.10164        -0.028966     -0.002006      0.076496
Li	      4.17632      6.18183      6.09306         0.037920     -0.013365      0.063360
Li	      4.25219      4.08648      8.28065        -0.041487     -0.029074     -0.058626
Li	      6.19712      6.12208      8.21399         0.017549      0.052456     -0.108696
Ti	      6.22570      4.12897      2.12323        -0.170098     -0.049853     -0.103356
Mn	      4.12300      2.08266      2.06328         0.087091      0.237952     -0.206745
Fe	      8.18082      6.27598      6.31279         0.254475     -0.221721     -0.188750
Co	      4.14578      4.12746      0.02303         0.009569     -0.063034      0.137091
Ni	      8.25062      2.08832      6.15933        -0.022966      0.056883      0.072974
Ni	      2.03908      6.21579      4.13066        -0.036360      0.123755     -0.069114
Ni	      4.14026      6.20644     10.30645         0.060871     -0.103226      0.074503
Ni	      6.14469      8.28223     10.34229         0.042462      0.011111     -0.014652
Ni	      6.16562      4.17638      6.21595         0.070054     -0.039878     -0.145017
O	      6.18168      4.17146      8.13559        -0.000212     -0.022067      0.164091
O	      2.17406      1.99407      2.07406         0.083021     -0.081269      0.182035
O	      4.20183      4.03382      1.98599         0.074163     -0.128823      0.024075
O	      4.18661      2.01181      4.01178        -0.108462      0.108805     -0.034792
O	      6.24121      4.10100      4.05000        -0.077620      0.071374     -0.131663
O	      6.14051      1.97081      6.16174         0.011406     -0.030358      0.046187
O	      8.36740      4.18091      6.09393         0.007552      0.021243      0.091817
O	      2.00565      4.34380      4.12744        -0.028330     -0.347045      0.049607
O	      3.92982      6.24785      4.15458         0.248297      0.017677     -0.001270
O	      4.18604      4.02126      6.19452        -0.116170      0.363824     -0.083195
O	      6.29922      6.17250      6.13518        -0.361671      0.114379     -0.064795
O	      8.21949      6.22988      8.18486        -0.003826     -0.002891      0.336624
O	      1.87141      6.29567      6.33211        -0.007766     -0.146366      0.118396
O	      4.03082      8.45846      6.37509         0.134120     -0.001332      0.145239
O	      3.99181      6.37650      8.24269        -0.038386      0.008451     -0.100679
O	      6.00722      8.41124      8.28091        -0.072823      0.056183     -0.082807
O	      6.21857      6.25384     10.51116        -0.053189     -0.060547     -0.033495
O	      8.15619      8.23995     10.36644         0.073116      0.042018     -0.145510
