# total energy = -207.70634243 eV
 
CRYSTAL
PRIMVEC
0.017097 6.248183 6.196760 
6.171945 0.035184 6.178489 
4.123884 4.162723 0.014441 
PRIMCOORD
36 1
Li	      6.20151      6.28554     12.24113        -0.064479     -0.015424     -0.011392
Li	      8.29550     10.41748     10.35469        -0.013780     -0.041414      0.010139
Li	      6.11194      2.11855      4.15105         0.021935     -0.032876     -0.011853
Li	      2.04182      4.16269      2.12704         0.080219     -0.009874     -0.037706
Li	      6.22298      6.33965      4.27141         0.034640     -0.035269      0.056620
Li	      4.07897      2.07784      6.07637        -0.022401      0.032562     -0.009773
Li	      2.05103      6.17239      4.24442         0.002976      0.065789      0.015480
Li	      2.08528      4.20993      6.12403         0.103173      0.016404      0.067758
Li	      4.13766      6.23770      6.15971         0.004239     -0.077394      0.041146
Ti	     10.18844      6.28552      8.33056        -0.272527     -0.217245      0.077709
Mn	      8.24764      8.33799     12.34790         0.136889      0.153252      0.010451
Fe	      6.15833      6.30627      8.25350         0.126233      0.009543     -0.063055
Co	      4.08233      2.14049      2.11560        -0.006288     -0.020937     -0.223530
Co	      4.10315      4.17813      4.14790         0.183107      0.055471      0.170248
Co	      8.23468      8.36384      8.27941         0.077304     -0.089021     -0.134921
Cu	      6.21494     10.40497      8.27364         0.014611     -0.052959      0.042176
Cu	      6.19949      4.19759      6.08637        -0.038125      0.039761      0.084195
Cu	      0.12496      4.20446      4.22097         0.028292     -0.026031      0.045997
O	      2.07500      6.39146      6.28233        -0.014200     -0.011106     -0.113716
O	      6.21610      6.19865     10.15474         0.026561      0.102262      0.460687
O	      2.02609      2.04789      1.94715         0.043516      0.105179      0.085927
O	      4.11711      4.27497      2.18638        -0.004976      0.053441     -0.027283
O	      4.09924      2.27085      3.98633        -0.198916     -0.005969      0.132842
O	      6.04252      4.17889      4.05878        -0.080651     -0.012155      0.088729
O	      6.28923      2.07997      6.24990        -0.029653      0.135052     -0.011148
O	      8.10967      4.04703      6.13239         0.484427     -0.132793      0.069824
O	      2.11512      4.16663      4.18566        -0.123262     -0.071000     -0.039944
O	      4.17801      6.21610      4.04028        -0.065912      0.010118     -0.191528
O	      4.29297      4.16499      6.08253        -0.504436     -0.029097     -0.192919
O	      6.20616      6.18787      6.35727         0.020034     -0.066845     -0.522102
O	      6.19633      4.10903      8.20560        -0.427962      0.170034      0.043764
O	      8.29712      6.31813      8.21599         0.297100      0.384094      0.046558
O	      3.99672      8.38556      6.37760        -0.000360      0.020315     -0.067982
O	      4.12774      6.22468      8.29422        -0.102167     -0.356102      0.103081
O	      6.13804      8.34374      8.22551         0.300676     -0.048023      0.042264
O	      8.40790      8.31169     10.43001        -0.015833     -0.001742     -0.036742
