# total energy = -210.19616388 eV
 
CRYSTAL
PRIMVEC
-0.045575 6.203748 6.299068 
6.162522 -0.025552 6.278730 
4.114457 4.128474 -0.023068 
PRIMCOORD
36 1
Li	      2.01730      8.19822      6.30796         0.007086      0.000822     -0.028717
Li	      6.15436     10.16628      8.26994        -0.025066     -0.001012     -0.073490
Li	      4.24401      8.21441      8.30826         0.026416      0.040132     -0.102099
Li	      6.12086      8.23880     10.31087         0.027223     -0.028091     -0.159491
Li	      6.10179      4.15351      6.30675        -0.065073      0.064846     -0.007508
Li	      6.16342      8.27919      6.42707        -0.063434      0.030366      0.052317
Li	      4.06981      6.17404      6.41848         0.102023     -0.090810     -0.007242
Li	      3.92351      4.18436      8.28162         0.036815      0.015620     -0.067032
Li	      6.06544      6.37060      8.30788        -0.004806     -0.013549     -0.010815
Ti	      4.01313      6.13082     10.27906         0.130322     -0.279913     -0.833426
Mn	      2.02582      4.09258      2.07562         0.074839      0.174813      0.062778
Fe	      4.03732      2.14082      6.29236         0.195464     -0.010869      0.191561
Co	      4.10664     10.31232      6.29670         0.411532     -0.165606      0.189898
Co	      4.10175      6.17703      2.09603        -0.182622     -0.020226     -0.155948
Co	      4.07485      8.28876      4.24316        -0.058452      0.032591      0.009685
Co	      8.16203      6.24448     10.48242        -0.255748      0.124714      0.372802
Cu	      6.14371      6.17834      4.20587         0.012235     -0.093986      0.078004
Ni	      4.18548      4.08009      4.20608         0.044782      0.022844      0.122525
O	      6.13587      8.26134      8.37125         0.022627     -0.033005      0.065652
O	      1.91228      2.18348      2.16861         0.065305      0.000593      0.035563
O	      3.98566      4.22199      2.13590        -0.092152      0.017678      0.136538
O	      4.08537      1.97130      4.25535         0.090482     -0.208974     -0.082966
O	      6.25144      4.14130      4.16496         0.214829      0.014763      0.030732
O	      6.08047      1.89133      6.47649         0.303261     -0.089470      0.187732
O	      8.28144      4.15991      6.39994         0.117848     -0.302233      0.098811
O	      2.07144      4.15477      4.02384        -0.455224     -0.158535      0.046205
O	      4.09620      6.18667      4.05351         0.126980      0.520237      0.050266
O	      4.15030      4.02307      6.22846        -0.001741      0.419423      0.042178
O	      6.23279      6.18800      6.18780        -0.424203     -0.053082     -0.008820
O	      6.27328      3.97253      8.43276        -0.072069      0.007083      0.568079
O	      8.29748      6.04443      8.39211         0.080313     -0.065780      0.076391
O	      1.91443      6.21338      6.19520        -0.241001      0.135227     -0.146740
O	      4.08690      8.39991      6.24050        -0.179728      0.319238     -1.231707
O	      4.07704      6.20005      8.46546        -0.081929      0.010269      0.705522
O	      6.04736      6.20399     10.51532        -0.280546     -0.563431     -0.212311
O	      8.18424      8.33305     10.46672         0.393413      0.227314      0.005073
