# total energy = -199.04208173 eV
 
CRYSTAL
PRIMVEC
0.003316 6.321688 6.009051 
6.316455 -0.004966 6.017147 
4.218050 4.226911 -0.010732 
PRIMCOORD
36 1
Li	      6.34819      4.17897      2.13266        -0.009107     -0.050655     -0.002521
Li	      4.11734      0.05486      3.90180        -0.023987     -0.019907     -0.010254
Li	      6.27165      2.20256      3.94899         0.013429      0.020543      0.003319
Li	      4.24050      6.37896      2.09807         0.014183      0.018889     -0.014969
Li	      2.13366      2.02251      3.94838         0.004309     -0.040299      0.003891
Li	      4.25064      4.24387      3.93543         0.029478      0.001981     -0.006554
Li	      6.35927      4.16586      9.93270        -0.030340      0.029100      0.001891
Li	      6.34297      8.38556      6.00693         0.008185     -0.036336      0.014732
Li	      6.28160      6.36408      8.07546         0.004360      0.021916      0.038492
Ti	      0.07982      6.31655      5.95784         0.296194      0.031320     -0.201958
Mn	      4.18260      2.10102      5.95539         0.026820      0.027473      0.010287
Fe	      8.39532      2.15513      5.98910        -0.074407     -0.010442     -0.082042
Cu	      4.29315      8.42388      8.07762         0.111956     -0.139629      0.209297
Cu	      2.09408      4.23574      2.06996        -0.011685     -0.141802     -0.251304
Cu	      6.22460      4.30590      5.98086        -0.072028     -0.029793     -0.069505
Cu	      4.26176      6.34394      5.98855         0.130457     -0.064692      0.019700
Cu	      8.36893      8.46236      8.05505        -0.195053      0.042181      0.117336
Cu	      2.15250      6.29444      3.96626        -0.075662      0.168745      0.006727
O	      4.22481      6.33614      7.89733        -0.016479      0.135520     -0.088962
O	      6.32109      8.45775      8.00541         0.143945     -0.058958      0.007663
O	      6.36630      6.24568     10.12013        -0.039329      0.025722      0.194913
O	      8.43716      8.36672     10.04107        -0.002627     -0.000106     -0.186257
O	      2.16019      2.16257      1.91707        -0.086590      0.285078      0.273919
O	      4.29354      4.10770      1.92598        -0.083433      0.149820      0.065819
O	      4.22886      2.07786      4.07296        -0.005307     -0.023554     -0.265281
O	      6.30974      4.22764      4.17459         0.045937     -0.011316     -0.160396
O	      6.27918      1.98925      6.05036         0.082234     -0.080635      0.019168
O	      8.54448      4.27388      6.08600         0.144172     -0.074895      0.171375
O	      2.08325      4.33700      3.92480         0.019325     -0.118684     -0.098844
O	      4.13846      6.32255      4.11628         0.035934      0.037458     -0.005524
O	      4.16314      4.00532      6.09278        -0.170960      0.060791     -0.012276
O	      6.48588      6.24682      5.96739        -0.150024      0.053575     -0.004121
O	      6.20211      4.23373      7.84421         0.103398      0.005201      0.185665
O	      8.42929      6.35320      7.96800         0.008622     -0.353570     -0.049396
O	      2.04052      6.43369      5.94997        -0.255501      0.014954      0.327411
O	      4.14543      8.54153      6.08220         0.079578      0.125007     -0.161441
