# total energy = -233.28505991 eV
 
CRYSTAL
PRIMVEC
-0.022604 6.225014 6.272214 
6.258180 -0.001066 6.250702 
4.161088 4.124481 0.010418 
PRIMCOORD
36 1
Li	     10.33842      4.26334      6.33478        -0.032996     -0.035978      0.011228
Li	      8.17878      2.11368      6.38635        -0.026012      0.005007      0.034654
Li	      6.25794      1.97519      8.21622        -0.004690      0.022114     -0.045241
Li	      8.37303      4.20009      8.22457        -0.002769      0.024137     -0.004261
Li	      6.17703      6.14695      4.18841        -0.033431      0.004974     -0.019132
Li	      4.18698      4.23732      4.11678         0.009885      0.060660     -0.020140
Li	      6.31681      4.10724      6.28950        -0.045542      0.009283      0.003021
Li	      8.36303      6.19370     10.35886         0.044874     -0.025473     -0.023260
Li	      6.37843      6.12463      8.29216         0.016222     -0.055903     -0.026022
Ti	      0.07456      4.12713      4.13109         0.347017     -0.215925     -0.243490
Cr	      4.10490      2.10638      2.08403        -0.066596      0.055084     -0.002868
Cr	      8.31182      4.11486      4.24975        -0.072453      0.038741      0.033050
Cr	      6.26027      2.02619      4.22945        -0.035554      0.038746      0.036795
Cr	      2.08134      4.15303      6.24935         0.025180      0.042305     -0.047748
Cr	      8.35334      8.22001      8.34017         0.037018     -0.021996     -0.056641
Co	      2.08239      0.01458      2.07143        -0.033168      0.052711      0.012477
Co	      4.15977      6.22145      6.28644        -0.005504     -0.014781      0.016391
Ni	      8.33462      6.15497      6.29530        -0.070495      0.069993     -0.041304
O	      2.16624      1.93635      2.11173         0.013477     -0.022043      0.009890
O	      4.29983      4.05377      2.08627         0.051523     -0.046135      0.004248
O	      4.25163      1.99307      4.10717         0.036594     -0.034929     -0.073168
O	      6.30882      4.03076      4.04237         0.055293     -0.037842     -0.021485
O	      6.19745      2.09426      6.14691         0.104431      0.010378     -0.057520
O	      8.28615      4.15333      6.18761         0.023355     -0.143113     -0.090118
O	      1.94759      4.19704      4.24715        -0.312475     -0.023874      0.062102
O	      4.11282      6.33640      4.37938         0.029401      0.230601      0.001195
O	      4.08964      4.24483      6.32121        -0.015827      0.048085      0.088717
O	      6.13956      6.29001      6.28430        -0.102499      0.037303     -0.028327
O	      6.18105      4.11915      8.50503        -0.030172      0.000819      0.298651
O	      8.32254      6.29464      8.31457         0.026141      0.049416      0.085377
O	      2.20496      6.16980      6.40026         0.071873     -0.021112      0.073310
O	      4.21195      8.17623      6.30210         0.031562     -0.013699     -0.026863
O	      4.05513      6.22042      8.32276        -0.026738     -0.050014      0.026247
O	      6.24479      8.35859      8.34101         0.004595      0.006346      0.055544
O	      6.15082      6.16809     10.46891        -0.053030     -0.047871      0.011711
O	      8.30023      8.31930     10.37658         0.041509      0.003986     -0.037019
