# total energy = -230.84125578 eV
 
CRYSTAL
PRIMVEC
0.025123 6.043871 6.280579 
6.328671 0.012901 6.293251 
4.235531 4.054018 -0.008069 
PRIMCOORD
36 1
Li	      8.48956      8.08081     12.47913         0.028506      0.017243     -0.051601
Li	      4.26001      8.07408      8.37124         0.058596     -0.014368     -0.006005
Li	      6.37113      8.03170     10.51384         0.052577      0.129572     -0.054517
Li	      6.36150      6.09210      4.21393        -0.024296     -0.046917     -0.007950
Li	      4.21798      2.03127      6.25061        -0.068021      0.019543      0.041458
Li	      4.20719      8.07541      4.27766        -0.056502     -0.017775     -0.034724
Li	      8.46000      6.13107     10.49477         0.011490      0.061421     -0.048520
Li	      4.26290      6.10542      6.19647         0.012053      0.026162     -0.087654
Li	      8.44852      8.06752      8.40921        -0.022313     -0.032299      0.047864
Ti	      2.30745      6.04753      8.34179         0.383523     -0.077622      0.030862
Mn	     10.49999      6.09282      8.42701        -0.030488      0.195802      0.145287
Cr	      2.13190      4.00063      2.09360        -0.069052     -0.134277      0.084023
Cr	      4.20518      3.98392      4.21568         0.137992     -0.075653      0.001998
Cr	      6.32626      4.05148      6.23128         0.131011      0.059203     -0.126598
Cr	      6.36992      6.12772      8.41450        -0.112862      0.027791     -0.096473
Co	      6.37513      6.03800     12.51173        -0.370037     -0.537409     -0.377548
Co	      4.30859      6.04682     10.52231        -0.119796      0.018552      0.035911
Cu	      6.32096      8.05097      6.21077         0.223455     -0.103181     -0.053671
O	      2.07541      1.93560      2.08111         0.072589     -0.028602      0.024735
O	      4.19678      4.02722      2.14876        -0.036878      0.072543     -0.228614
O	      4.21338      1.92386      4.20590        -0.003457      0.024530      0.030999
O	      6.26975      4.03008      4.16239        -0.030436     -0.014908     -0.027405
O	      6.31946      2.02769      6.47622        -0.027090     -0.069031     -0.046800
O	      8.40909      4.04502      6.35735        -0.237317      0.050195      0.055012
O	      2.23977      4.00502      4.13850        -0.106495     -0.050241     -0.078482
O	      4.21613      6.00620      4.02001        -0.027626      0.082167      0.058186
O	      4.33127      4.06011      6.17169         0.089766     -0.022798     -0.004604
O	      6.32045      6.07495      6.41084        -0.021495     -0.087516     -0.034463
O	      6.43847      4.09344      8.27131        -0.049376     -0.057104      0.070870
O	      8.37900      5.99706      8.40808        -0.080948      0.071778      0.011836
O	      2.11858      5.99637      6.42444         0.370254      0.294694      0.142039
O	      4.33228      8.21355      6.24965        -0.263430      0.154142      0.063432
O	      4.18146      6.07659      8.39254         0.002384     -0.014146     -0.031800
O	      6.37871      8.14129      8.32179         0.008714      0.125090      0.159063
O	      6.32444      6.09655     10.41919         0.158408     -0.002023      0.367862
O	      8.46102      8.28586     10.47932         0.016596     -0.044554      0.025993
