# total energy = -91.20696113 eV
 
CRYSTAL
PRIMVEC
2.214955 4.388470 2.173481 
4.328032 -2.156486 -2.146653 
0.010322 4.379059 -4.338503 
PRIMCOORD
16 1
Li	      2.30306      2.31272      0.01013        -0.020016      0.039658     -0.085527
Li	      4.52043      2.37616     -2.27575        -0.178137      0.560106     -0.127351
Li	      2.30707      4.61022     -2.26738         0.082836     -0.041174     -0.063753
Li	      4.63920      4.58378     -4.51630         0.110691     -0.346911      0.283550
Mn	      0.00441      0.21058     -0.20128         3.174746     -1.535222      2.105528
Mn	      2.38397      0.24658     -2.17129        -0.903474     -0.612953     -1.840270
Ni	      0.33142      2.42603     -2.29100        -1.700336      0.112903     -0.297200
Ni	      2.28439      2.30278     -4.52700         0.289835      0.107195      1.112291
O	      4.57694      4.63571     -2.11013        -0.067145     -0.079735      0.948227
O	      4.58188      2.32519     -4.68081        -0.334433      0.315588      0.279619
O	      4.73568      2.45375      0.02401        -1.506633      0.813019     -1.009225
O	      4.41226     -0.09060     -2.25947        -0.914319      2.207322      0.056501
O	      2.44966      4.61108      0.11882         0.353158      0.009744     -1.531433
O	      2.28341      2.13119     -2.27119         1.024382      0.113338     -0.213469
O	      2.33099      7.09430     -2.26590         0.443708     -1.287494     -0.351498
O	      2.15421      0.23490     -0.31749         0.145136     -0.375383      0.734010
