# total energy = -89.96012535 eV
 
CRYSTAL
PRIMVEC
0.000072 2.108893 -2.108900 
-0.000143 2.108106 2.108115 
16.038823 -0.000152 -0.000879 
PRIMCOORD
16 1
Li	      2.04875      2.11132      0.00175        -0.039395     -0.002615     -0.001973
Li	      6.15315      2.11022      0.00027         0.043565      0.000667      0.001121
Li	      8.00560      0.00068     -0.00086        -0.049203      0.000123      0.000683
Li	     11.90730      0.00015     -0.00077        -0.003380      0.001289      0.000234
Mn	      0.10526      0.00257      0.00131         0.021906      0.000703      0.000639
Mn	      4.04355      0.00245      0.00188         0.178894      0.000858      0.000040
Ni	     10.00793      2.10877     -0.00124         0.135746      0.000520      0.000054
Ni	     13.88306      2.11050     -0.00073         0.003446     -0.001089      0.000835
O	     14.16640      0.00204     -0.00022         0.103169      0.000010      0.000905
O	     16.02746      2.11093     -0.00001         0.055580      0.001025      0.001053
O	      9.99556      2.10814      2.10719        -0.005530      0.001002     -0.000605
O	     11.93391      2.10846     -0.00110        -0.050509      0.001096     -0.000053
O	      5.85812      0.00217      0.00157        -0.154659     -0.001280     -0.001197
O	      8.15729      2.10894     -0.00131        -0.208622     -0.000039      0.000983
O	      1.99980      0.00277      0.00200        -0.015000     -0.001198     -0.000980
O	      3.98738      2.11099      0.00156        -0.016008     -0.001073     -0.001738
