# total energy = -88.73957729 eV
 
CRYSTAL
PRIMVEC
-1.965587 4.032085 -1.965283 
1.909986 3.976230 1.909047 
1.945596 0.028597 -5.819546 
PRIMCOORD
16 1
Li	      0.02113      3.82741     -3.75592        -0.435083     -0.021090     -0.978181
Li	      1.79352      5.72324     -3.71081         0.221842      0.824414     -0.961110
Li	      1.78133      3.82897     -5.51157         0.098081      0.114952     -0.964556
Li	     -0.00365      1.92056     -1.86633        -0.816365     -0.108587     -0.099747
Mn	      0.00079      0.00087     -0.00102        -1.593287     -5.424964      2.109535
Mn	     -0.00818      5.71977     -1.91323        -1.532864      4.638572      0.015448
Ni	      1.80591      3.80663     -1.85827         2.137022     -0.244731      1.596766
Ni	      1.80004      1.91511     -3.66395         0.979496     -2.781419     -1.612384
O	     -0.02461      3.89869     -5.65963        -0.482872      0.254590     -1.779926
O	      1.72452      5.65814     -1.86933         2.794117      2.321855      0.107194
O	      1.92739      3.76271     -3.70576         0.646005      2.119490     -1.871670
O	      1.80893      3.63758      0.03289         0.539838      0.628072      1.579350
O	      1.81371      1.95536     -1.77772         0.849499     -2.343342      0.067688
O	     -0.03450      5.85499     -0.12470        -0.287600      1.270564      2.378347
O	     -0.08615      3.97122     -1.86664        -1.564688     -2.603859     -0.441787
O	      0.07023      1.75455     -0.01605        -1.553143      1.355482      0.855034
