# total energy = -238.67221024 eV
 
CRYSTAL
PRIMVEC
0.027888 6.268984 6.375238 
6.253393 0.023709 6.378691 
4.187419 4.199935 -0.002333 
PRIMCOORD
36 1
Li	      6.27394      2.12825      4.29985        -0.004235      0.017529     -0.011746
Li	     10.39904      6.34273      8.49265        -0.024357      0.035103      0.005524
Li	      4.17967      4.24081      4.47468         0.032993     -0.017950      0.019275
Li	      4.29403      2.34366      6.33174         0.010663     -0.028324     -0.089962
Li	      6.06664      4.09930      6.41979         0.051502     -0.036894      0.020514
Li	      4.21957      8.32853      4.23385         0.011591     -0.004674      0.005308
Li	      2.30281      4.18631      6.38871        -0.038226      0.006841      0.021600
Li	      4.18857      6.06362      6.33214         0.029674      0.038263     -0.031181
Li	      4.20386      4.18871      8.28918         0.050322      0.003600     -0.034691
Ti	      6.30036      6.27879      8.31324        -0.039794     -0.081241     -0.319422
Mn	      4.20274      8.37859      8.48407        -0.024320      0.020090      0.031007
Mn	      8.34317      4.26217      8.49456        -0.003740      0.011703     -0.061120
Mn	      6.19101      6.30451      4.32736         0.027327     -0.025657      0.059223
Cr	      6.23665      0.06653      6.36727         0.014260     -0.006669      0.038160
Cr	      8.31725      2.11723      6.36657         0.010271     -0.016775      0.022027
Cr	      8.38491     10.43662     10.61704        -0.014602     -0.017757     -0.013265
Cr	      2.17499      6.27335      4.28316        -0.013394      0.030850     -0.005692
Cu	      6.29784     10.41298      8.48721        -0.047593     -0.064106     -0.005659
O	      2.17377      2.07295      2.03701        -0.025947      0.056693     -0.002715
O	      4.00280      4.26996      1.99468        -0.068993      0.053176     -0.016480
O	      4.00505      1.98619      4.12561         0.002862      0.003403      0.007201
O	      6.35354      4.31715      4.10298        -0.029969      0.009391      0.112711
O	      6.33058      2.04800      6.36341        -0.017791     -0.004057      0.010539
O	      8.40418      4.14286      6.29763        -0.023785      0.019129      0.053305
O	      2.11542      4.16481      4.16612         0.017481      0.020562     -0.075772
O	      4.22875      6.32018      4.24249        -0.043776     -0.042103      0.011320
O	      4.19227      4.19235      6.38512         0.028765     -0.018900     -0.016064
O	      6.30234      6.32343      6.50415        -0.013757      0.007205      0.336933
O	      6.43071      4.34439      8.47903        -0.036994      0.104717     -0.001831
O	      8.26025      6.33705      8.67447        -0.060905      0.046611      0.018924
O	      2.04163      6.33888      6.36706         0.001787      0.002985     -0.145440
O	      4.13031      8.47661      6.52811         0.015490     -0.000842     -0.024417
O	      4.38274      6.19675      8.63965         0.225991     -0.025286      0.045292
O	      6.14434      8.35704      8.54685         0.006351     -0.095107     -0.002527
O	      6.31316      6.28844     10.69092        -0.021972     -0.027186      0.019148
O	      8.39484      8.36127     10.75791         0.016821      0.025679      0.019973
