# total energy = -238.69918685 eV
 
CRYSTAL
PRIMVEC
0.038697 6.184282 6.280618 
6.342783 0.024291 6.295257 
4.247566 4.152011 -0.003090 
PRIMCOORD
36 1
Li	      6.34554      6.21327     12.47261        -0.066421      0.023496     -0.102124
Li	      4.33940      6.21013     10.53221         0.099129      0.017595      0.042798
Li	      6.36315      6.21680      4.30533         0.005218     -0.003983      0.120610
Li	      8.41987      6.15721      6.30523        -0.117953     -0.059568      0.007917
Li	      6.43522      4.21039      6.30619         0.085469      0.054312      0.028779
Li	      6.37083      4.18165     10.46664        -0.016345      0.080251     -0.048345
Li	      8.42782      6.23072     10.46117        -0.124105      0.016837     -0.064655
Li	      4.31898      6.23475      6.26911         0.072396      0.032471      0.024834
Li	      6.40879      6.16803      8.38733         0.059528      0.018871      0.010207
Ti	      4.25106      4.26318      4.32973         0.060558      0.122519      0.172322
Mn	      4.29029      8.18817      8.37449         0.018337     -0.029869      0.047849
Mn	      6.34459      2.00519      4.28079        -0.063979      0.028471     -0.021941
Mn	      6.30840      8.24121      6.21358         0.010538      0.059090      0.051929
Cr	      8.52114      8.29105     12.50766        -0.008242     -0.045205     -0.091766
Cr	      2.14508      6.19375      8.36852        -0.040306     -0.008102      0.077517
Cr	      8.42010      4.22873      8.36151         0.010551     -0.075004      0.005437
Cr	      4.32118      4.12843      8.38860        -0.010754     -0.011003     -0.038941
Ni	      6.32405      2.11240      8.35190         0.068685     -0.023385     -0.081677
O	      2.08528      2.07135      1.97949         0.067847     -0.015342      0.052854
O	      4.22443      4.13867      2.19918        -0.010996     -0.158230     -0.027586
O	      4.36098      2.14247      4.10338        -0.068448     -0.019695     -0.001468
O	      6.22969      4.05650      4.12532        -0.064886      0.093581      0.014083
O	      6.49418      2.08824      6.26564         0.012021     -0.000266      0.039721
O	      8.46599      4.08265      6.40208         0.019171      0.042704     -0.015158
O	      2.27141      4.12113      4.11359         0.045427      0.030231      0.003147
O	      4.29701      6.08419      4.14086         0.020254     -0.161384      0.094316
O	      4.22026      4.14365      6.25859         0.057575      0.044334     -0.089978
O	      6.35762      6.40179      6.27505        -0.009610     -0.053023      0.017873
O	      6.36911      4.14118      8.41251         0.001743      0.162433      0.014706
O	      8.55592      6.23038      8.35232        -0.115461      0.002437     -0.013686
O	      2.13883      6.13987      6.38877        -0.055411      0.037412     -0.063882
O	      4.24247      8.26411      6.34580        -0.070726     -0.005389     -0.006373
O	      4.12497      6.13409      8.40829        -0.033770      0.021276      0.013879
O	      6.50551      8.35240      8.37785        -0.013178     -0.062879     -0.086745
O	      6.36047      6.35573     10.47384         0.044922     -0.136469     -0.045755
O	      8.39760      8.28049     10.45664         0.131222     -0.019525     -0.040697
