# total energy = -222.03301455 eV
 
CRYSTAL
PRIMVEC
0.010356 6.422473 6.235544 
6.200270 -0.020666 6.266434 
4.112908 4.282421 0.006155 
PRIMCOORD
36 1
Li	      4.22134      8.38607      8.35522        -0.006402     -0.042272      0.030670
Li	      4.08642      6.39788     10.22351         0.023466     -0.017877      0.023294
Li	      6.19276      8.62512     10.24960        -0.019563      0.007239     -0.006201
Li	      6.21972      2.10167      8.30329        -0.013428      0.034220      0.023503
Li	      4.19692      4.21470      4.17839         0.037856     -0.067113      0.038915
Li	      6.16033      4.32096      6.21157        -0.020832      0.032262     -0.011610
Li	      4.21727      6.30366      6.44916         0.056171     -0.108525     -0.064998
Li	      4.05378      4.47945      8.34949         0.022231      0.023932      0.047465
Li	      6.01334      6.55463      8.32546         0.020068      0.043656      0.066678
Ti	      4.13917      2.26756      6.20079        -0.056176      0.539238     -0.208630
Mn	     10.30083      4.26535      6.27716         0.097880     -0.032211     -0.234253
V	      2.00739      4.25206      2.12095        -0.127043      0.099907      0.059024
V	      8.35112      6.49089     10.36973        -0.071956     -0.104500      0.081072
Fe	      6.17694      6.24134      4.15462        -0.055442      0.076680      0.129036
Co	      6.18689      4.27928     10.38127         0.149169      0.095264      0.226789
Co	      6.17976      8.50903      6.36970         0.010790     -0.041033      0.015161
Ni	      8.22171      2.13754      6.28813        -0.059802     -0.014341      0.042976
Ni	      6.26696     10.60353      8.36984        -0.142492      0.057405     -0.049595
O	      2.04783      2.26000      2.16026         0.008486     -0.088679      0.009088
O	      4.00845      4.30288      1.92593         0.022166      0.008460     -0.006522
O	      4.06808      2.12654      4.31984         0.064816      0.030171      0.278066
O	      6.14452      4.36188      4.15451        -0.028287     -0.109750      0.098523
O	      6.11100      1.95245      6.26496        -0.136317     -0.056863      0.023566
O	      8.35676      4.26640      6.34917        -0.034553      0.126312     -0.074298
O	      2.13584      4.35612      4.10370        -0.531590     -0.135127      0.018884
O	      4.01328      6.43652      4.23170         0.016132     -0.141516      0.021448
O	      4.17384      4.10482      6.29477        -0.015760     -0.534712     -0.011703
O	      6.28275      6.37756      6.18338         0.104131      0.042059      0.016990
O	      6.40436      4.23626      8.32809        -0.100734     -0.034669      0.250739
O	      8.26299      6.27331      8.40629         0.034692      0.005243     -0.094017
O	      1.93965      6.49032      6.19620        -0.037386     -0.051636     -0.018922
O	      4.09368      8.78386      6.17986         0.112692      0.046496     -0.455400
O	      4.11633      6.42165      8.31660         0.105956      0.059105     -0.035492
O	      6.17810      8.60220      8.30449        -0.043861     -0.139993     -0.083650
O	      6.39471      6.36871     10.54764         0.078774      0.120307      0.064833
O	      8.25325      8.40382     10.46647         0.536148      0.272860     -0.211427
