# total energy = -221.46643628 eV
 
CRYSTAL
PRIMVEC
0.005372 6.202274 6.101676 
6.596501 0.005385 6.101326 
4.397279 4.133659 0.004414 
PRIMCOORD
36 1
Li	      8.83569      8.25960     12.02636         0.019865      0.032985      0.081137
Li	      6.62084      4.12740      2.11839        -0.032648      0.022595      0.006103
Li	      4.37817      2.07809      2.06588        -0.039354      0.004029      0.059720
Li	      8.68866     10.17415     10.12474        -0.010079      0.079243     -0.016685
Li	      6.85109      8.34290     10.14874        -0.029765     -0.003083      0.025485
Li	      4.42700      6.20237      2.15356         0.030115     -0.009401      0.002043
Li	      6.48524      6.17157      4.06702        -0.001515      0.002673     -0.012222
Li	     10.75523      8.21399     10.17329        -0.063435     -0.011515      0.033937
Li	      2.30494      6.31083      4.09727         0.017327     -0.039300     -0.003909
Ti	      6.56738      6.27189      8.31495        -0.085193      0.153895      0.244267
Mn	      0.04756      6.17200      6.08593         0.033906     -0.057347      0.001421
V	      2.19189      3.98591      2.13811        -0.040380     -0.205050      0.020338
V	      4.42180      2.05325      5.96361        -0.041242      0.010477     -0.055574
Fe	      6.63108      4.11090      5.99826         0.028176     -0.090470      0.063443
Fe	      4.21857      6.36847      6.05742         0.110405     -0.087128      0.069710
Cu	      2.16055      4.15092      6.02620        -0.094297      0.005683     -0.011407
Ni	      4.45423      4.20021      4.03153         0.065341     -0.069438     -0.073009
Ni	      8.81045      8.25668      8.21393         0.031444     -0.008342     -0.061343
O	      2.12221      2.22876      2.02763        -0.017529      0.250183     -0.016526
O	      4.17988      4.13287      1.96126        -0.008866      0.013690     -0.120774
O	      4.34158      2.09280      4.20913         0.017677     -0.093481     -0.063310
O	      6.53340      4.12349      4.10358         0.104619      0.012316     -0.144844
O	      6.40268      1.99474      6.12604        -0.085529     -0.053442      0.022033
O	      8.67770      4.21199      6.16052         0.052419     -0.098625     -0.003654
O	      2.39530      4.17270      4.03536        -0.041684      0.000874     -0.089748
O	      4.44342      6.20397      4.19048         0.022650      0.133021     -0.123657
O	      4.61948      4.07321      6.16340         0.069664      0.077981      0.057109
O	      6.73005      6.20598      6.14832         0.019596     -0.058906      0.041459
O	      6.71967      4.22307      8.10708         0.004356      0.087972     -0.001845
O	      8.63953      6.11235      8.02787        -0.054606     -0.040642      0.043913
O	      2.29617      6.13422      6.17982        -0.165530      0.081752      0.028301
O	      4.32730      8.32338      6.11062        -0.079231      0.172829      0.028519
O	      4.63608      6.20967      8.04065         0.221687      0.019174     -0.006622
O	      6.69400      8.16194      8.04508        -0.017102     -0.223237      0.070436
O	      6.59253      6.22291     10.16816         0.065018     -0.007044     -0.316834
O	      8.78815      8.26190     10.13026        -0.006279     -0.004921      0.222592
