# total energy = -91.12676890 eV
 
CRYSTAL
PRIMVEC
-1.996622 4.095750 -1.996313 
1.940143 4.039013 1.939190 
1.976316 0.029049 -5.911433 
PRIMCOORD
16 1
Li	      0.02180      3.94924     -3.87546        -0.249416      0.003791     -0.657492
Li	      1.85060      5.90540     -3.82891         0.131896      0.524839     -0.606525
Li	      1.83803      3.95084     -5.68700         0.020980      0.086398     -0.599726
Li	     -0.00377      1.98169     -1.92573        -0.496251     -0.071026     -0.033458
Mn	      0.00081      0.00090     -0.00105        -0.957175     -3.679884      1.634759
Mn	     -0.00844      5.90183     -1.97412        -0.843441      2.926426      0.135434
Ni	      1.86339      3.92778     -1.91741         1.276832     -0.133220      1.006821
Ni	      1.85733      1.97606     -3.78057         0.658572     -1.683031     -0.876569
O	     -0.02539      4.02277     -5.83977        -0.193900      0.189085     -1.458844
O	      1.77941      5.83823     -1.92882         1.536095      1.524958      0.026646
O	      1.98874      3.88248     -3.82370         0.403572      1.355583     -1.281654
O	      1.86651      3.75336      0.03394         0.373526      0.427836      1.166626
O	      1.87144      2.01759     -1.83430         0.512389     -1.583714     -0.018643
O	     -0.03560      6.04135     -0.12867        -0.149624      0.998202      1.389858
O	     -0.08889      4.09761     -1.92606        -1.023297     -1.484088     -0.349223
O	      0.07247      1.81040     -0.01656        -1.000759      0.597843      0.521989
