# total energy = -224.45655686 eV
 
CRYSTAL
PRIMVEC
0.028093 6.188703 6.260955 
6.372920 0.014335 6.275174 
4.257580 4.144217 0.000340 
PRIMCOORD
36 1
Li	      8.51955      8.23376     12.50100        -0.036917     -0.044164      0.080279
Li	      4.23951      2.07407      2.13637        -0.028013      0.023111     -0.030495
Li	      6.21277      6.20443      4.23971        -0.227687      0.119371      0.007427
Li	      4.29015      4.25429      4.28682        -0.078722      0.057919      0.010573
Li	      4.18081      2.14183      6.24740         0.039774      0.026836      0.075671
Li	      6.24087      4.23137      6.27035        -0.070222      0.046976      0.098890
Li	      4.19434      8.11761      4.19482         0.158291     -0.183493     -0.092751
Li	      2.34156      6.29487      4.12073         0.081357     -0.083985     -0.031407
Li	      4.35509      6.17028      6.07684        -0.015512      0.020086     -0.153440
Ti	      4.23273      0.07586      4.21795         0.013482      0.128536     -0.004147
Mn	      2.13256      0.07356      2.11422        -0.066159      0.214533     -0.055585
Mn	      2.21133      4.10835      6.23797        -0.047451     -0.023415     -0.198337
V	      4.26155     10.27488      6.24831        -0.031542     -0.113739      0.438835
V	      2.08679      4.10456      2.24537        -0.162217     -0.030997     -0.175074
Co	      6.40202      2.09099      4.23821         0.035047     -0.200922     -0.143712
Co	      6.41536      6.21925      8.30969         0.114286     -0.047356     -0.214044
Ni	      4.24140      6.20549      2.12199        -0.033816      0.056882      0.083204
Ni	      4.30381      4.11722      8.34211         0.226726     -0.125988     -0.083447
O	      2.07708      2.07853      2.04553         0.286012     -0.371363     -0.024926
O	      4.09699      4.13247      1.96610         0.201734     -0.158847     -0.164151
O	      4.37321      1.95375      4.20989         0.699845     -0.002887      0.047286
O	      6.49790      4.16834      4.12319         0.061440     -0.871591      0.197123
O	      6.40987      1.86870      6.28495         0.000306      0.116826     -1.148154
O	      8.62787      4.07813      6.23563        -0.006719      0.006856     -0.264059
O	      2.16504      4.11565      3.98842         0.021941     -0.048012      0.346078
O	      4.25365      6.19657      4.08030        -0.002095      0.020962      0.551096
O	      4.13412      4.15272      6.31872        -0.015532     -0.045697     -0.088406
O	      6.37082      6.35129      6.31219         0.070418     -0.031632     -0.053675
O	      6.51678      4.11682      8.26668        -0.173688      0.071194     -0.063484
O	      8.49842      6.08908      8.33590        -0.364556      0.188849     -0.015458
O	      2.05624      6.11670      6.41560        -0.003463      0.001305     -0.044800
O	      4.45393      8.41920      6.24209        -0.001801      0.035389     -0.139917
O	      4.33839      6.18911      8.50387         0.195373      0.131734      0.343337
O	      6.44848      8.39529      8.44850        -0.092661      0.131450      0.867696
O	      6.31109      6.19346     10.49608         0.017629      0.986292     -0.108513
O	      8.45985      8.35263     10.42145        -0.764889     -0.001021      0.150488
