# total energy = -219.12337636 eV
 
CRYSTAL
PRIMVEC
0.035583 6.364834 6.583864 
6.125164 0.080923 6.537933 
4.089508 4.219344 0.048761 
PRIMCOORD
36 1
Li	      8.16850      2.35623      6.66345         0.031700     -0.051651      0.071825
Li	      8.15755      4.25931      4.59433         0.019467      0.041415      0.042151
Li	     10.15894      6.39655      8.72760         0.092376     -0.000173      0.011015
Li	      8.23358      4.50176      8.64971         0.069405      0.047238      0.051784
Li	      2.11224      2.09298      4.28448        -0.024401      0.009446     -0.060652
Li	      4.07453      4.21065      4.33905        -0.090749     -0.000272     -0.011627
Li	      8.22350      6.28799      6.75674         0.038645      0.088139     -0.007125
Li	      8.18976      6.45162     10.70542         0.050545     -0.042964     -0.016210
Li	      6.27894      6.39728      8.77409        -0.054603      0.027424     -0.006917
Ti	      6.04062      2.15081      4.48863        -0.327499     -0.168318      0.037434
Mn	      6.08921      4.24738      2.23287         0.126626      0.221577      0.028707
Mn	      6.19836      8.40950      6.60990         0.091499      0.003678      0.011550
V	      6.16047      4.33063     10.81795         0.078767     -0.026133      0.320777
V	      4.09894      6.38496      6.54288        -0.386826      0.102727     -0.028156
Cu	     10.15428      4.34202      6.62261        -0.100311      0.088192     -0.022995
Cu	      4.00178      2.13902      2.27444        -0.139835     -0.018568      0.096542
Cu	      6.20930      4.32951      6.56518         0.146447     -0.229685     -0.025281
Cu	      4.12831      4.21967      8.68964        -0.029449      0.189735     -0.039197
O	      8.20862      6.54946      8.74079         0.005242     -0.095204     -0.035230
O	      2.11278      1.90436      2.23376        -0.248372     -0.074506     -0.088131
O	      4.19173      4.27723      2.10599        -0.221901      0.052663      0.010616
O	      4.20177      2.13466      4.40500         0.163025     -0.070069      0.178124
O	      6.12075      4.10559      4.13458         0.044187      0.046878      0.051948
O	      6.18820      2.33673      6.33111         0.114853      0.393900      0.209334
O	      8.17909      4.31078      6.67439        -0.341110      0.067952     -0.150888
O	      1.88329      4.26649      4.46869         0.028871      0.011747      0.000982
O	      4.07008      6.55197      4.57589        -0.021604      0.036966      0.006150
O	      4.17629      4.38197      6.55011        -0.015705     -0.178431     -0.190216
O	      5.96724      6.31872      6.63246         0.480836     -0.161059      0.117186
O	      6.26670      4.36130      9.08724        -0.021560      0.013193     -0.313093
O	      2.14447      6.30836      6.76674         0.093445      0.120407      0.034367
O	      4.09908      8.32244      6.47661        -0.146869     -0.125710     -0.027287
O	      3.98115      6.26146      8.60360         0.265600     -0.201074     -0.104774
O	      5.97812      8.59994      8.86013         0.261219     -0.198577     -0.057037
O	      6.15886      6.39498     11.09431         0.005161      0.018960     -0.165326
O	      8.30055      8.55478     10.92500        -0.037123      0.060161      0.069647
