# total energy = -225.50006726 eV
 
CRYSTAL
PRIMVEC
0.013877 6.415268 6.340878 
6.135650 0.034916 6.320610 
4.106407 4.280065 0.005615 
PRIMCOORD
36 1
Li	      2.05345      2.14988      0.02405         0.017267      0.002458      0.028297
Li	      4.08760      0.05202      4.20902        -0.019150      0.059206      0.000898
Li	      8.13532      4.36471      8.54571         0.011967      0.044268     -0.040121
Li	      6.10668      6.45122      4.31409         0.046603     -0.031991      0.030222
Li	      4.06111      4.31152      4.35943         0.025032     -0.069815      0.004955
Li	      6.08421      4.30539      6.32835         0.038693     -0.052390     -0.070731
Li	      2.13722      4.21026      6.25356         0.012785     -0.030772      0.023615
Li	      4.15853      6.25892      6.25053         0.000691     -0.144789     -0.001171
Li	      4.14319      4.23859      8.24817        -0.041755     -0.030579     -0.036199
Ti	     10.10116      4.31250      6.38881        -0.264010     -0.052416      0.020395
Mn	      4.06994      2.17750      2.17640         0.107706      0.002074      0.061442
Mn	      2.11329      6.36796      4.26613        -0.050788      0.329622     -0.073219
V	      2.14883      6.45964      8.43147         0.009805     -0.020859     -0.040478
V	      6.19641      2.21121      4.23583        -0.075295      0.141122     -0.083909
Fe	      6.13880      6.25761      8.23673        -0.008846      0.277509      0.275973
Co	      4.06409      2.22815      6.30322         0.063202      0.035923     -0.097641
Cu	      4.10499      8.51032      4.21495        -0.122281     -0.026226      0.180476
Ni	      6.13416      2.27124      8.45609         0.010206      0.002032     -0.133647
O	      2.13200      2.01691      2.16934        -0.052514      0.003546      0.034234
O	      4.18486      4.41470      2.01197        -0.058146     -0.013474      0.008619
O	      4.19270      2.15356      4.17490        -0.019031     -0.011182      0.156098
O	      6.20912      4.20182      3.96773         0.003327     -0.144375      0.156919
O	      6.06572      2.13075      6.31829        -0.013210     -0.046241      0.053437
O	      8.26473      4.46077      6.29113         0.226565     -0.027927     -0.000829
O	      1.93308      4.45343      4.24406         0.057574     -0.104471     -0.030938
O	      4.01732      6.37034      4.19373         0.054032     -0.089861      0.174068
O	      4.10670      4.09478      6.28541        -0.018828      0.047566     -0.052455
O	      6.23438      6.42543      6.34114        -0.052134      0.016725     -0.218504
O	      6.15247      4.35020      8.45155        -0.012011     -0.215340     -0.073675
O	      8.13253      6.46402      8.29382         0.004400     -0.027343      0.067738
O	      2.01307      6.43849      6.55599         0.000786     -0.014090     -0.156273
O	      4.06076      8.79888      6.52283         0.020572      0.034372     -0.019029
O	      4.13862      6.40785      8.40706        -0.032608     -0.019371     -0.046951
O	      6.05760      8.61837      8.51569         0.055360      0.046827     -0.078759
O	      6.25526      6.55137     10.68208         0.011654      0.151012      0.015028
O	      8.22953      8.40354     10.64843         0.062377     -0.020748     -0.037886
