# total energy = -229.25196291 eV
 
CRYSTAL
PRIMVEC
-0.019959 6.360746 6.331761 
6.226425 -0.013910 6.325766 
4.149454 4.234940 -0.007766 
PRIMCOORD
36 1
Li	      8.27669      8.51125     12.58071         0.041288     -0.009464      0.018583
Li	      4.16648      8.45433      8.38644         0.048319     -0.025768     -0.069538
Li	      6.29183      8.35164     10.55619         0.014782      0.009334      0.026252
Li	      6.18611      2.15098      8.42919        -0.044626      0.008995      0.028097
Li	      8.25186      4.23997      8.38480        -0.050101      0.024511     -0.017543
Li	      6.27779      4.19669      6.35842        -0.021166      0.024218      0.002013
Li	      8.17087      6.43668     10.55581        -0.001002      0.047436      0.077655
Li	      6.18402      8.46391      6.31652         0.001341     -0.007309     -0.017965
Li	      6.22137      6.34707      8.55805        -0.025034      0.004819      0.073610
Ti	      2.04792      6.29826      8.33662        -0.169544     -0.088683     -0.231361
Mn	      6.18630      4.28061     10.56533         0.062267     -0.114951      0.051798
Mn	      8.28284      8.45149      8.48284        -0.013428     -0.033352     -0.011814
V	      2.06834      2.10469      4.16080        -0.084052      0.044638      0.055039
V	      4.24792      2.09046      6.38347        -0.091455      0.158874      0.035564
Fe	      4.10818      4.22597      4.20818        -0.044533     -0.047666     -0.061390
Co	     10.33330      4.20719      6.30180         0.196755      0.122897      0.264832
Co	      4.19112      6.37712      6.34234         0.025386      0.089424     -0.085073
Ni	      8.31249     10.57206     10.58715        -0.022132      0.018101      0.002389
O	      2.10802      1.99694      2.29279         0.018767     -0.044424     -0.074348
O	      4.27787      4.18280      2.16646        -0.009852      0.035136     -0.202593
O	      4.07974      2.15266      4.28574         0.016790      0.032439      0.000351
O	      6.20079      4.31869      4.12383        -0.067281      0.010267     -0.036212
O	      6.04094      2.13204      6.32809         0.113152      0.041531      0.047026
O	      8.26541      4.35965      6.34842         0.402894     -0.223791     -0.025932
O	      2.07521      4.09564      4.13084        -0.021230      0.057538     -0.013098
O	      4.23076      6.22963      4.22832        -0.076834      0.012991      0.031024
O	      4.14383      4.17137      6.23237        -0.007246      0.027387     -0.036210
O	      6.32010      6.33087      6.09219        -0.010660     -0.040981      0.010399
O	      6.04767      4.21745      8.61102         0.190583      0.016851     -0.018231
O	      8.21482      6.43364      8.27502         0.021942      0.091148     -0.025661
O	      2.05990      6.40499      6.47105        -0.345731     -0.040189     -0.027663
O	      4.17240      8.44458      6.17365        -0.004822     -0.191381     -0.005550
O	      4.06757      6.31196      8.46318        -0.031799     -0.057056     -0.176044
O	      6.33609      8.60424      8.43837        -0.112896      0.122091      0.019356
O	      6.18844      6.37777     10.59296         0.096828      0.032792      0.364722
O	      8.33621      8.50897     10.59148         0.004330     -0.108403      0.027513
