# total energy = -214.39854384 eV
 
CRYSTAL
PRIMVEC
0.016938 6.094257 6.215045 
6.462128 0.013966 6.217396 
4.316240 4.072651 0.001080 
PRIMCOORD
36 1
Li	      4.36094      4.16305      0.20494         0.012273     -0.053183     -0.093459
Li	      6.29104      4.06851      2.16406         0.005959     -0.030868     -0.028672
Li	      4.31542      2.15608      2.05339        -0.026254      0.018336     -0.021916
Li	      6.49018      8.15226     10.31705         0.070210      0.035591     -0.002729
Li	      0.14570      1.99509      2.05767         0.077840      0.127001      0.048104
Li	      2.21978      4.07886      2.10653         0.046362      0.002870      0.054165
Li	      6.49676      4.04477     10.19195         0.016419     -0.005512      0.166612
Li	      8.52603      6.11527     10.21674        -0.031764      0.007020      0.086070
Li	      8.60572      8.05202      8.30339        -0.006540     -0.016688      0.078364
Ti	      4.39714      6.03533     10.30049         0.049710     -0.268141      0.002833
Ti	      4.20148      6.07707      6.17519        -0.063561      0.378081     -0.104809
Mn	      2.17603      2.07544      0.06708         0.044856     -0.160925     -0.053671
Mn	      6.46811      6.11239      8.28469         0.004712      0.038198      0.156478
Cu	      2.21531      2.04332      4.04799         0.003173      0.328778     -0.240440
Cu	      4.21111      4.05321      4.09009         0.276448      0.202729     -0.033384
Cu	      4.37794      2.05010      6.28021         0.068204     -0.267794      0.111682
Cu	      6.52198      4.05461      6.27497        -0.077590     -0.234608      0.013468
Ni	      6.38122      8.15596      6.22324        -0.253080      0.033410     -0.053109
O	      2.20622      3.98487      4.20644        -0.659576     -0.250630     -0.139625
O	      8.38723      6.10030      8.19368        -0.074598      0.011910     -0.056513
O	      2.21165      2.05444      1.90276        -0.010199      0.065740      0.164153
O	      4.31674      4.11111      2.22677        -0.007238     -0.012789      0.186247
O	      4.31990      2.04118      4.31026         0.051629     -0.186173      0.130801
O	      6.68907      4.18084      4.21048         0.069435     -0.014190      0.074430
O	      6.73932      2.11619      6.23347         0.066819      0.037488     -0.007461
O	      8.86044      4.05865      6.07902         0.132030      0.088440      0.068701
O	      4.40107      6.02069      4.27650         0.058263      0.127363      0.081570
O	      4.12902      4.07692      6.18200        -0.020430      0.009092     -0.587501
O	      6.22780      6.05214      6.36287        -0.008543      0.058858      0.046840
O	      6.42826      4.16912      8.22659        -0.049020      0.092596     -0.140168
O	      2.25718      6.18441      6.21682         0.115681     -0.077249      0.035410
O	      4.23378      7.99785      6.19672         0.001239     -0.084223      0.000874
O	      4.42221      6.08322      8.32771         0.066056     -0.062207     -0.013097
O	      6.41692      8.03510      8.21530         0.053908     -0.181390      0.182453
O	      6.37420      6.12220     10.17942         0.020796     -0.002017     -0.017188
O	      8.65540      8.23861     10.46389        -0.023627      0.245085     -0.095513
