# total energy = -221.09073884 eV
 
CRYSTAL
PRIMVEC
0.018302 6.214131 6.490181 
6.062429 0.042928 6.467774 
4.078591 4.165736 -0.009661 
PRIMCOORD
36 1
Li	      8.13251      8.29515     12.80109         0.032991     -0.031548      0.051334
Li	      6.14904     10.23251      8.55614         0.007756     -0.037509     -0.061794
Li	      4.11834      2.10679      2.24138        -0.053293      0.002851     -0.169792
Li	      6.08098      8.35303     10.65826         0.096642      0.037718     -0.049220
Li	      4.07401      4.06211      4.42740        -0.044089      0.029480      0.021438
Li	      4.04624      2.16319      6.36414         0.043242      0.039738      0.069746
Li	      8.06378      6.36557     10.91945         0.020288      0.077803      0.005723
Li	      2.04776      4.19926      6.47950        -0.084374      0.042820      0.042814
Li	      3.98770      4.25392      8.62135        -0.011529      0.023583      0.019459
Ti	      8.04875      4.21763      4.27655         0.016013     -0.557915     -0.101276
Ti	      4.06174      6.16237      2.14304         0.238852     -0.060483     -0.209994
Mn	      2.06649      4.12361      2.18675        -0.226804     -0.092762      0.125985
Mn	      3.99385      6.22792      6.47933        -0.255694      0.294833      0.125621
Fe	      6.10101      6.41806      8.64639         0.106800     -0.284481     -0.093485
Co	      6.09026      6.24915      4.32731         0.493233     -0.009533      0.222642
Cu	      0.08831      6.14871      6.45848         0.000735     -0.032495      0.020834
Cu	      6.07418      4.16317      6.44259         0.145817     -0.030390      0.092491
Cu	      4.07947      8.32797      4.37798        -0.074610      0.008963      0.135832
O	      4.07411      8.20187      6.40275        -0.035110     -0.051370      0.116779
O	      1.97418      2.17004      2.37466        -0.346093      0.120201     -1.184732
O	      3.98524      4.24683      2.23379         0.220591      0.190672     -0.157772
O	      3.96046      2.01791      4.34865         0.178309      0.059220      0.008747
O	      6.16277      4.25844      4.20770        -0.013581      0.060067      0.020076
O	      6.11354      2.17395      6.71965        -0.103157      0.174679     -0.050832
O	      8.17756      4.18868      6.33181        -0.230500      0.061175      0.003393
O	      1.92515      3.99785      4.37053         0.670775     -0.121869     -0.081331
O	      4.14679      6.25854      4.19286        -0.527898      0.042049     -0.100006
O	      4.12570      4.29851      6.47824        -0.037588     -0.250934     -0.016447
O	      5.99892      6.16743      6.35420         0.098730     -0.219691      1.004109
O	      6.18911      4.16944      8.70062        -0.076108     -0.040560      0.033916
O	      8.15075      6.15156      8.64729         0.122532     -0.049546      0.007804
O	      2.06139      6.24424      6.48438         0.131551     -0.125022     -0.017008
O	      4.14150      6.26123      8.74116        -0.098904     -0.029744      0.255022
O	      6.12192      8.23707      8.62302         0.047476      0.459512     -0.007460
O	      6.04640      6.28731     10.70121         0.103760     -0.092806     -0.053444
O	      8.20308      8.46338     10.76718        -0.556763      0.393296     -0.029171
