# total energy = -229.25877529 eV
 
CRYSTAL
PRIMVEC
0.059274 6.110194 6.452633 
6.154142 0.033912 6.477754 
4.133479 4.120856 -0.007710 
PRIMCOORD
36 1
Li	      4.16639     10.12611      6.45627        -0.024859      0.088245      0.036979
Li	      2.25577      8.18509      6.35189        -0.007480     -0.011194     -0.013845
Li	      4.22806      8.17949      8.46078        -0.019463      0.037927     -0.043733
Li	      4.22887      6.10253     10.75844        -0.005567      0.070426      0.025790
Li	      4.15896      6.16768      2.20629        -0.090992      0.030884      0.038403
Li	      2.03745      2.07139      4.24588         0.077144      0.005193     -0.016012
Li	      4.10373      8.15993      4.42178         0.000877     -0.016247      0.014368
Li	      4.16916      6.27769      6.43952        -0.022814     -0.052520     -0.044467
Li	      8.30809      8.20465      8.72097         0.067821     -0.063391      0.061508
Ti	      2.29186      6.20306      8.51728         0.100873      0.192782     -0.235665
Ti	      4.14318      4.10298      4.25812        -0.010459     -0.352440     -0.039151
Mn	      6.17868      4.11056      6.48867         0.062032     -0.076533     -0.011791
Mn	      8.23655      6.21649     10.79495        -0.011841      0.053104     -0.004277
Fe	      8.21946      4.05491      8.56273         0.061238      0.055260      0.001501
Co	      4.15178      2.03400      6.47225        -0.089612      0.025409     -0.021918
Co	      6.12018      8.16827      6.47352         0.017157     -0.038857      0.027876
Co	      6.23554      8.20702     10.72623        -0.151840      0.024272      0.127846
Co	      6.17626      6.16567      8.65503         0.188095     -0.082491     -0.002255
O	      2.04950      1.99574      2.20986         0.020709     -0.299608     -0.037207
O	      4.13972      4.13017      2.27980         0.078066     -0.002418      0.087097
O	      4.17822      2.14315      4.34325         0.162712      0.257412     -0.056994
O	      6.14055      4.08218      4.18032        -0.081738     -0.050125     -0.056556
O	      6.16061      2.16649      6.24230        -0.552532     -0.077057     -0.079391
O	      8.14672      4.09461      6.57193         0.010372      0.261464     -0.091599
O	      2.16287      4.16146      4.23622         0.046781     -0.031394      0.018764
O	      4.04107      6.06439      4.30722         0.023507     -0.066055      0.023104
O	      4.20650      4.12361      6.29473        -0.048950     -0.146217      0.020960
O	      6.20102      6.11272      6.67778         0.539303     -0.020837      0.064048
O	      6.23495      4.21397      8.67341        -0.139208      0.121098      0.014815
O	      8.12365      6.09729      8.58312        -0.190087      0.077299      0.087200
O	      2.10764      6.07983      6.65517         0.046956      0.105630      0.239277
O	      4.21292      8.21118      6.41216         0.081050     -0.006098      0.033672
O	      4.14770      6.13421      8.65950        -0.116422      0.009281     -0.051158
O	      6.24010      8.18564      8.75842         0.019351     -0.002469     -0.073970
O	      6.26952      6.28174     10.61781        -0.042583     -0.020324     -0.077383
O	      8.16132      8.11050     10.77088         0.002402      0.000589      0.034163
