# total energy = -218.92097713 eV
 
CRYSTAL
PRIMVEC
0.084201 6.206749 6.287345 
6.335964 0.082774 6.287308 
4.266821 4.180091 0.013021 
PRIMCOORD
36 1
Li	      8.57278      2.32583      6.24931        -0.108757     -0.007139      0.004564
Li	      4.35590      8.32347      8.35661         0.033272     -0.001698      0.140382
Li	      8.50943      4.21426      4.37855        -0.007976      0.045247     -0.070472
Li	      8.52816      4.20746      8.26233        -0.011066     -0.022112      0.047620
Li	      4.21207      4.16737      4.20989         0.016837     -0.015196     -0.059283
Li	      8.42270      6.16915      6.29722         0.032942      0.018998      0.002058
Li	      6.59339      4.29651      6.30506         0.029943     -0.065375      0.014980
Li	      4.33640      8.31787      4.23458        -0.000921     -0.036628     -0.108354
Li	      6.33594      6.22578      8.36582        -0.014613      0.002158      0.077636
Ti	      6.40950      4.24571      2.19829        -0.006051      0.073803      0.284827
Ti	      6.24878      2.11794      4.38232        -0.400969      0.044281      0.069380
Mn	      6.34704      2.18569      8.33706        -0.061723      0.072355     -0.238581
Mn	      8.54826      8.38056      8.41022         0.012473     -0.098239      0.063735
Fe	      2.18448      6.10855      4.22633         0.031392      0.206688     -0.196053
Cu	      2.18499      2.19837      4.22029         0.062030      0.002310     -0.010087
Cu	      6.39859      8.29255      6.28516         0.081009     -0.149421     -0.020825
Cu	      4.34140      6.27607      6.25933         0.055412      0.016185     -0.139899
Ni	     10.49899      4.18929      6.29184         0.137896      0.047044      0.016820
O	      6.33554      6.32288      6.17537        -0.011039     -0.016799      0.125679
O	      4.41523      8.25224      6.33941        -0.056944      0.129000     -0.076623
O	      1.99563      2.02460      2.19798         0.176300     -0.082616     -0.154115
O	      4.42817      4.32283      2.02794         0.069927     -0.120162      0.067689
O	      4.43835      2.14149      4.14769         0.369699     -0.021498      0.083295
O	      6.35812      4.16267      4.11485         0.019440     -0.086456     -0.107919
O	      6.39417      2.15096      6.29532         0.010657      0.036041     -0.488230
O	      8.53650      4.22751      6.33090        -0.083242     -0.025962     -0.011042
O	      2.16733      4.21896      4.03206        -0.018838     -0.128579     -0.114020
O	      4.16746      6.23379      3.95484         0.025044     -0.031794      0.703262
O	      4.15108      4.27734      6.47231        -0.225144      0.033350     -0.018173
O	      6.18708      4.11458      8.34022         0.022997      0.107710     -0.012990
O	      8.65156      6.44326      8.37475        -0.262889     -0.034611      0.004618
O	      2.23022      6.19835      6.32994         0.081000     -0.036169      0.056296
O	      4.18702      6.14083      8.48761        -0.032970      0.059796     -0.049920
O	      6.55894      8.44100      8.57311         0.029007      0.062742      0.064096
O	      6.51168      6.37512     10.48429        -0.031521     -0.023800     -0.001744
O	      8.45748      8.28172     10.37454         0.037386      0.046549      0.051390
