# total energy = -242.24271023 eV
 
CRYSTAL
PRIMVEC
-0.004725 6.256703 6.188267 
6.472595 -0.017850 6.201161 
4.328156 4.192348 -0.024756 
PRIMCOORD
36 1
Li	      4.25322      4.24788      0.18560        -0.009917     -0.029863      0.022713
Li	      6.14359      4.31182      2.07437        -0.000697     -0.027735     -0.027328
Li	      4.23670      2.34302      2.08407        -0.018562     -0.049187     -0.047521
Li	      4.34245      6.12232      2.07944         0.006703      0.064021      0.027751
Li	      2.35335      4.18403      2.12449        -0.011607      0.007388      0.011451
Li	      4.23417      4.22529      3.95085        -0.004317      0.036104      0.026435
Li	      6.50844      4.08634      6.31897         0.022569      0.018045     -0.008645
Li	      8.72147      6.19334     10.15567         0.048357     -0.012699      0.011494
Li	      4.42027      4.07599      8.19870         0.041139      0.034579     -0.026867
Ti	      6.59078      8.43902     10.28354         0.078784      0.055368      0.096941
Ti	      2.14907      4.32079      6.26535         0.031050      0.357172     -0.069757
Mn	      2.22624      2.12386      0.17920         0.041287     -0.074407     -0.008669
Mn	      4.31783      6.26973     10.21853        -0.010128     -0.004365     -0.089782
Mn	      8.67490      6.20382      6.20824        -0.119628      0.050156      0.032451
V	      6.51253      4.15675     10.28544        -0.053530      0.000329      0.037594
Cr	      6.42968      6.23169      4.07747        -0.080373     -0.027233     -0.034205
Cr	      6.50289      6.19573      8.20586        -0.070687     -0.026364      0.042258
Cu	      4.33246      6.21055      6.26217        -0.198245     -0.036680     -0.008756
O	      2.15881      2.08830      2.18257         0.013199     -0.043000      0.099435
O	      4.26733      4.23633      2.05849        -0.019117     -0.010564      0.021820
O	      4.29238      1.97827      4.19345         0.020928     -0.056256     -0.005397
O	      6.44262      4.07881      4.06417         0.019734     -0.131516      0.007762
O	      6.51055      2.07391      5.96103        -0.085112     -0.004544     -0.125425
O	      8.63886      4.23421      5.97728        -0.008305      0.001779      0.033701
O	      2.08868      4.05946      4.26700         0.110692     -0.005401      0.027319
O	      4.41716      6.37865      4.20637         0.077557     -0.111618     -0.221430
O	      4.06990      3.94082      6.19266         0.004397     -0.083939     -0.020436
O	      6.32792      6.28469      6.17386         0.375548     -0.081609     -0.012846
O	      6.45397      4.20751      8.33134        -0.044365      0.018315     -0.154214
O	      8.50825      6.20592      8.10759        -0.000253      0.012613      0.006258
O	      2.33762      6.17534      6.21651        -0.190733     -0.231286     -0.018117
O	      4.47907      8.51023      6.07767         0.122650      0.164673      0.115737
O	      4.49148      6.21930      8.27993         0.112017      0.015362      0.280746
O	      6.44919      8.26023      8.23942         0.005783      0.012749     -0.001332
O	      6.56291      6.31044     10.19607        -0.030181      0.117459     -0.011457
O	      8.57794      8.43452     10.27893        -0.176636      0.082152     -0.009678
