# total energy = -242.74959966 eV
 
CRYSTAL
PRIMVEC
0.051539 6.412009 6.284862 
6.358469 0.063950 6.272189 
4.258235 4.285696 0.023576 
PRIMCOORD
36 1
Li	     10.53224     10.71651     12.43020         0.017284     -0.038489      0.062409
Li	      8.51240      2.34568      6.18284        -0.014137      0.007401     -0.060931
Li	      4.32213      8.53737      8.34192         0.031808      0.001790      0.014336
Li	      4.40414      0.09938      4.31843         0.025335      0.081945     -0.087313
Li	      6.37116      8.44707     10.57112        -0.023196      0.006698      0.047895
Li	      8.54126      6.33747      6.22522        -0.014626     -0.005773     -0.022433
Li	     10.61350      8.78513     10.61906         0.012361      0.031432      0.056398
Li	      4.33120      6.54701      6.30096         0.013520      0.011110      0.007994
Li	      6.37921      6.46062      8.49327        -0.019947     -0.018722      0.059220
Ti	      2.20397      6.44585      8.24881         0.119994     -0.022318     -0.085879
Ti	      8.55671      8.65600      8.48879        -0.008156      0.135145      0.283215
Mn	      6.36050      2.21122      8.28823        -0.008345     -0.011973     -0.087175
Mn	      8.50951      4.35574      8.25412        -0.071656      0.004107     -0.098084
Mn	      6.32782      8.46996      6.33478        -0.139283     -0.024548      0.217982
V	      4.28454      4.21840      4.25469         0.188700      0.106588      0.112488
Cr	      6.41723      6.41859      4.22102         0.030076     -0.018029      0.005730
Cr	      8.43537      6.50471     10.51899        -0.021311      0.049020      0.072937
Ni	      6.46181      4.31822      6.24235        -0.083251      0.019892     -0.046156
O	      2.15095      2.01799      2.15090        -0.008238     -0.084590      0.015056
O	      4.40650      4.33019      2.19486         0.044689      0.037530     -0.085553
O	      4.14641      2.29759      4.16354        -0.122575     -0.204605     -0.053327
O	      6.33900      4.41805      4.15194         0.112215      0.042986     -0.214383
O	      6.35650      2.26877      6.42810        -0.014877     -0.091163      0.042557
O	      8.47757      4.32700      6.25863         0.104580      0.008360      0.020575
O	      2.17783      4.29445      4.15566        -0.049437     -0.068240      0.003200
O	      4.27115      6.30790      4.05867        -0.000463      0.078214     -0.088277
O	      4.12939      4.29682      6.30365        -0.078632     -0.035528      0.002046
O	      6.35478      6.43996      6.18934        -0.001974      0.087270     -0.032117
O	      6.24218      4.31737      8.31137        -0.138419     -0.035845      0.094219
O	      8.49698      6.59373      8.49761        -0.021498      0.075340      0.015510
O	      2.18373      6.39894      6.34559         0.026696     -0.010373      0.124274
O	      4.47385      8.51743      6.34601         0.062341      0.031776     -0.020971
O	      4.16680      6.30500      8.41811        -0.118400     -0.173658     -0.015576
O	      6.52539      8.74959      8.43051         0.082637      0.092379     -0.057789
O	      6.51822      6.48849     10.47011         0.065350     -0.035700      0.019040
O	      8.56077      8.49802     10.37866         0.020837     -0.029427     -0.221117
