# total energy = -234.44042670 eV
 
CRYSTAL
PRIMVEC
0.009587 6.075910 6.245419 
6.352784 -0.009039 6.263744 
4.239477 4.067261 -0.010245 
PRIMCOORD
36 1
Li	      0.06187      6.04532      6.25076         0.028799      0.077477     -0.004328
Li	      6.26624      4.06060      2.03251        -0.056826      0.005912     -0.049313
Li	      8.49685      4.05532      4.21147         0.068389      0.059311     -0.009389
Li	      2.19840      4.08210      2.20049         0.059895      0.017424      0.006016
Li	      4.11266      4.10593      4.10726        -0.024279     -0.020236     -0.031438
Li	      6.38175      4.05484      6.23080        -0.029926     -0.042741      0.038451
Li	      0.17122      4.07075      4.17154         0.040112     -0.006417     -0.014806
Li	      2.12153      5.92387      4.21954        -0.023512      0.043298     -0.023086
Li	      2.11178      4.12649      6.10367         0.027840      0.021481      0.012047
Ti	      2.15200      2.06422      0.00835        -0.024180     -0.167793      0.109064
Ti	      4.32215      4.08879      8.33142         0.309847     -0.020669     -0.067507
V	      6.35271      2.08375      4.18572        -0.025502     -0.097048      0.129016
Cr	      4.25190      2.08767      2.06989         0.091077      0.011409      0.204020
Cr	      6.33427      6.10918      4.16669        -0.123471     -0.064510     -0.046814
Cr	      8.45381      6.02183      6.25182         0.063011     -0.037365     -0.054140
Co	      4.25278      5.98466      2.15037        -0.124825      0.100688      0.148300
Ni	      4.21782      6.05737      6.17104         0.041584     -0.102374     -0.057276
Ni	      6.37881      6.06373      8.32636        -0.003895     -0.028905      0.034527
O	      2.21602      2.02976      2.05825         0.165049     -0.038104     -0.107559
O	      4.26504      4.01587      2.06166        -0.055051      0.376474     -0.161398
O	      4.24183      2.01733      4.17591         0.014114     -0.025961     -0.033245
O	      6.34288      3.93594      4.16785         0.038890      0.165439     -0.009789
O	      6.34596      2.01894      6.22399        -0.064646      0.008907     -0.003862
O	      8.45072      4.00423      6.25048        -0.002682     -0.082880      0.036973
O	      2.11004      3.97349      4.17426         0.033438     -0.089076     -0.023348
O	      4.37119      6.06700      4.16843         0.022003      0.040473     -0.346410
O	      4.20840      3.98800      6.41780        -0.002284     -0.069149      0.164528
O	      6.44226      6.04659      6.18773        -0.014272     -0.003890     -0.028390
O	      6.18584      4.02078      8.39880        -0.268433     -0.480752     -0.018035
O	      8.42603      6.15318      8.24137         0.122731      0.015313      0.122673
O	      2.16042      6.24299      6.20816        -0.083767      0.198608      0.011729
O	      4.11837      8.11373      6.31695        -0.111918      0.131685     -0.077656
O	      4.29139      6.05241      8.26543        -0.098030     -0.000710      0.116105
O	      6.35039      8.11947      8.40808        -0.113913      0.143380     -0.069506
O	      6.34241      6.29487     10.36255         0.026282     -0.042515      0.113676
O	      8.36772      8.14229     10.41589         0.098350      0.003815     -0.009830
