# total energy = -241.50224559 eV
 
CRYSTAL
PRIMVEC
-0.004911 6.295566 6.349869 
6.311069 -0.007657 6.352399 
4.203045 4.194409 -0.000707 
PRIMCOORD
36 1
Li	      6.40263     10.41131      8.51557         0.014950     -0.021111      0.000537
Li	      6.17761      6.23951      4.42531         0.026210     -0.026781      0.021033
Li	      4.26823      4.29843      4.42226        -0.026436     -0.000181      0.023398
Li	      6.13956      4.35880      6.30358         0.037329     -0.030295      0.038872
Li	      4.19912      8.26158      4.25041        -0.010956     -0.021817     -0.004306
Li	      2.24001      4.07522      6.35183        -0.028416      0.033497     -0.027861
Li	      4.34441      6.13075      6.32078        -0.044056      0.029703      0.033666
Li	      4.16176      4.30365      8.31083        -0.019661      0.031579      0.013724
Li	      6.19870      6.33603      8.29254        -0.031266      0.049014     -0.002981
Ti	      0.12773      6.18818      6.30016         0.378554     -0.290992     -0.140907
Ti	      8.28966      4.21601      8.60837        -0.314082      0.132199      0.450731
V	      4.23996      8.34952      8.48646        -0.025134     -0.035241     -0.015118
Cr	      8.37445      4.16739      4.22531         0.043449     -0.011696     -0.073217
Cr	      6.30900      2.14400      4.23093         0.132446     -0.080560     -0.036300
Cr	      4.23195      6.27624      2.13496        -0.076372      0.069676      0.130909
Cr	      4.11296      2.17840      6.33765        -0.023406      0.032019     -0.055998
Co	      2.18220      6.30744      4.22589        -0.077519      0.001495     -0.159464
Ni	      8.40642      2.11620      6.33009         0.046686     -0.041269     -0.026486
O	      2.10028      2.23398      2.04031        -0.055628      0.084952      0.164355
O	      4.09690      4.19659      1.97708         0.001627      0.036778     -0.050738
O	      4.28161      2.00872      4.27980        -0.037430      0.000905     -0.045330
O	      6.41054      4.09939      4.24689        -0.019007      0.052851      0.027075
O	      6.28134      1.98557      6.37063        -0.051321     -0.029238      0.010311
O	      8.51698      4.23052      6.31822         0.019357      0.050769     -0.004024
O	      2.08854      4.24936      4.07817         0.045604      0.222070     -0.365994
O	      4.17217      6.28055      4.08596        -0.399165     -0.060139     -0.014144
O	      4.19315      4.10941      6.36497         0.020102      0.076853      0.004617
O	      6.38924      6.30276      6.35567        -0.090171     -0.005186     -0.007304
O	      6.42917      4.08644      8.44749         0.287197     -0.028252      0.002022
O	      8.51502      6.18355      8.36389        -0.010703     -0.076239      0.031250
O	      1.98030      6.36203      6.36266        -0.214224     -0.117379      0.004520
O	      4.15917      8.49574      6.38239         0.137727      0.242689     -0.015540
O	      4.18076      6.41288      8.58781        -0.010716     -0.078303      0.055975
O	      6.16025      8.42201      8.61728         0.095367      0.009504      0.004642
O	      6.27335      6.34759     10.69828         0.225739     -0.036964      0.130592
O	      8.32097      8.42080     10.62491         0.053325     -0.164909     -0.102520
