# total energy = -234.72433514 eV
 
CRYSTAL
PRIMVEC
0.023888 6.204227 6.280318 
6.346926 0.021078 6.283489 
4.240638 4.147554 0.004618 
PRIMCOORD
36 1
Li	      4.24368      4.12098      0.06131        -0.031427     -0.032461     -0.072227
Li	      6.34224     10.19779      8.40894         0.071579      0.001389     -0.029581
Li	      4.42048      8.34506      8.34640         0.010388     -0.061825      0.024441
Li	      4.29430      6.21041     10.33829         0.090476     -0.034476     -0.016278
Li	      6.41602      8.21113     10.26792         0.058956     -0.029703      0.031050
Li	      8.44624      4.20197      8.37779        -0.000032      0.022026      0.028211
Li	      6.34146      4.16568      6.40560         0.012503      0.045220     -0.035163
Li	      8.41030      8.28042      8.45129        -0.100300      0.024141      0.085029
Li	      6.39340      6.28628      8.45613        -0.035434      0.110149      0.081288
Ti	      8.34057      2.21353      6.25300         0.077439      0.118745     -0.626859
Ti	      2.15623      1.99728      4.03905         0.126905     -0.227681     -0.048880
Ti	      4.28252      6.19724      6.47207        -0.115180      0.059605      0.870461
V	      8.49706      6.19033      6.37719         0.024426     -0.142263     -0.010830
Fe	      4.24816      4.13980      4.06294        -0.034198     -0.041176      0.253793
Co	      6.35188      2.10694      8.38784        -0.037805      0.110370     -0.155856
Co	      6.30089      4.33485     10.35343        -0.068194     -0.913783      0.394202
Co	      6.32660      8.32267      6.43682         0.026903      0.057353     -0.059928
Co	      8.44215      6.24057     10.42303        -0.381400      0.066156      0.095633
O	      2.13299      2.09397      2.10922        -0.121988      0.009472      0.156233
O	      4.24015      4.19071      2.17212        -0.028688      0.202117     -0.098739
O	      4.10316      2.11584      4.30046        -0.149234      0.026524     -0.044753
O	      6.28665      4.29508      4.15288        -0.002194      0.388158     -0.018062
O	      6.43509      2.08343      6.24988        -0.044411      0.028966      0.223856
O	      8.46442      4.11881      6.27380        -0.088638     -0.162332      0.111832
O	      2.17537      4.12932      4.24362         0.286106     -0.160801     -0.033545
O	      4.37302      6.24182      4.29008         0.073631      0.036413     -0.084985
O	      4.26458      4.15446      6.19657         0.026618      0.048949     -0.034929
O	      6.31340      6.21397      6.18523        -0.039498     -0.036359     -0.076009
O	      6.34658      4.08695      8.47340         0.052390     -0.047894      0.235703
O	      8.51245      6.21724      8.32675         0.174582      0.024770     -0.283068
O	      2.26906      6.29082      6.19876         0.187617      0.049529      0.197769
O	      4.12739      8.17592      6.25458         0.138300      0.090756     -0.173609
O	      4.27247      6.19225      8.26564        -0.029293      0.041281     -0.857578
O	      6.36006      8.27931      8.36044         0.030044     -0.003965     -0.148589
O	      6.40724      6.13175     10.51794         0.125359      0.353038     -0.352778
O	      8.50598      8.25703     10.59085        -0.286306     -0.020411      0.472744
