# total energy = -90.10747950 eV
 
CRYSTAL
PRIMVEC
-2.172491 4.456515 -2.172154 
2.111037 4.394781 2.110000 
2.150396 0.031607 -6.432130 
PRIMCOORD
16 1
Li	      0.02582      4.67560     -4.58825         0.160516     -0.077450      0.773882
Li	      2.19097      6.99155     -4.53315        -0.073009     -0.576613      0.580099
Li	      0.02569      4.64589     -0.30085         0.110150     -0.112923      0.456318
Li	     -0.00446      2.34617     -2.27993         0.365928      0.046376     -0.030969
Mn	      0.00096      0.00107     -0.00125         0.306603      6.175753     -4.676275
Mn	     -0.01000      6.98731     -2.33722         0.465951     -2.361818     -0.670546
Ni	      2.20611      4.65020     -2.27007        -0.986587      0.112638     -0.767216
Ni	      2.19894      2.33952     -4.47591        -0.823391      1.208929      0.452328
O	     -0.03006      4.76266     -6.91384        -0.022281     -0.358006      4.608757
O	     -0.00435      2.51724     -4.39358        -0.629272     -0.935914      0.123447
O	      2.35452      4.59655     -4.52698         0.077301     -0.862241      0.928083
O	      2.20980      4.44369      0.04019        -0.371420     -0.295248     -1.139571
O	      2.21564      2.38867     -2.17167        -0.276874      1.153142      0.366048
O	     -0.04215      7.15250     -0.15233         0.242907     -4.261987     -0.653221
O	     -0.10524      4.85126     -2.28031         0.656848      0.520372      0.564720
O	      0.08579      2.14337     -0.01961         0.796630      0.624990     -0.915884
