# total energy = -92.95614696 eV
 
CRYSTAL
PRIMVEC
2.136558 4.073310 2.025914 
4.201093 -1.999476 -2.028393 
0.022955 4.083620 -4.095088 
PRIMCOORD
16 1
Li	      2.09724      2.06087     -0.02505        -0.018826      0.003119      0.002374
Li	      4.14361      2.06968     -2.07963        -0.014581     -0.003748     -0.006512
Li	      0.06739      2.07833     -2.06381         0.013811      0.003721      0.017443
Li	      2.10706      2.02769     -4.03457        -0.004647      0.004489     -0.008341
Mn	      2.16387      8.12932     -2.06934         0.013616     -0.019550     -0.011407
Mn	      2.10996      0.06728     -2.07099         0.014642      0.008310     -0.009440
Ni	      2.13078      4.06542     -2.03010        -0.017047     -0.008309      0.011531
Ni	      4.24344      4.14082     -4.04179        -0.061315      0.037900      0.037598
O	      4.13891      4.08994     -1.96954         0.115403     -0.003405      0.126374
O	      4.32821      2.12156     -4.20179        -0.110105     -0.114600     -0.060922
O	      4.42557      2.11708     -0.01557         0.024034      0.122083     -0.006617
O	      4.05277     -0.05158     -2.01355        -0.026191     -0.016928     -0.096460
O	      2.30514      4.06607      0.05217         0.030184     -0.004125      0.118564
O	      2.14194      1.95207     -2.02752        -0.000172     -0.121305     -0.008813
O	      2.07606      6.22067     -2.07401         0.128183      0.108738     -0.001875
O	      2.03283      4.10404     -4.15893        -0.086988      0.003611     -0.103497
