# total energy = -255.56288166 eV
 
CRYSTAL
PRIMVEC
0.001410 6.341456 6.267013 
6.238777 0.023795 6.244722 
4.173234 4.227016 0.001656 
PRIMCOORD
36 1
Li	      8.27496      2.27446      6.40018        -0.002885      0.015928     -0.078494
Li	      4.07849      2.15150      2.06085         0.031484     -0.015315      0.003776
Li	      8.25899      4.26932      4.32320         0.006044      0.032112     -0.009823
Li	      6.30580      2.17038      8.19004        -0.020343     -0.026760      0.019514
Li	      8.27130      4.21512      8.22529         0.027716      0.039814     -0.030795
Li	      8.38572      6.23464      6.34947        -0.006539     -0.026926      0.008873
Li	      6.39942      4.17715      6.36338        -0.007641      0.011211      0.013497
Li	      6.29150      8.47299      6.31775         0.003576      0.003207      0.006458
Li	      4.18246      4.17013      8.22360         0.005595     -0.018209      0.010631
Ti	      6.24921      2.14038      4.20217        -0.376304      0.423777      0.392034
Ti	     10.34136      8.46038     10.38531        -0.130899      0.150406     -0.034836
Ti	      4.14499      4.20284      4.19034         0.525033     -0.568812      0.113565
Ti	      4.17072      6.42049      6.27284         0.081075      0.049538      0.091279
Ti	      6.20887      6.36813      8.27202         0.005127     -0.225429     -0.035421
Cr	      4.10340      4.20253      0.06210        -0.310520     -0.008502      0.014355
Cr	      2.12835      6.35997      8.32212         0.082692     -0.135939     -0.106492
Cr	      8.31849      6.37017     10.39002         0.029767      0.074379      0.028497
Fe	      2.19209      2.12732      4.16145        -0.583090     -0.049670     -0.087516
O	      2.08679      1.97467      2.10551         0.034789      0.039404      0.474893
O	      4.27187      4.21692      2.09216        -0.001071     -0.010732      0.078211
O	      4.22243      2.18925      4.18812         0.472992      0.035556     -0.026654
O	      6.23337      4.15849      4.09756         0.110248      0.100719     -0.115874
O	      6.24659      2.03099      6.15095         0.040805     -0.005205     -0.199095
O	      8.42447      4.24097      6.27085         0.226743     -0.076622      0.013619
O	      2.06541      4.30995      4.14336         0.155835     -0.029945      0.014942
O	      4.11366      6.34108      4.13348        -0.194377     -0.007725      0.043740
O	      4.18007      4.38966      6.11077        -0.034134      0.118254     -0.210807
O	      6.21332      6.39749      6.30645        -0.006892      0.010355     -0.324842
O	      6.20600      4.36603      8.39175         0.004157     -0.040079      0.019565
O	      8.16516      6.38435      8.42301        -0.051371      0.011886     -0.065371
O	      2.07835      6.32553      6.25107        -0.070623     -0.048084      0.034529
O	      4.17864      8.45544      6.20844         0.062592     -0.042623     -0.010501
O	      4.16989      6.36722      8.31172         0.002190     -0.026304     -0.061443
O	      6.25689      8.45243      8.41383        -0.056366      0.085401      0.101137
O	      6.26412      6.35519     10.46618        -0.016788      0.101983     -0.109813
O	      8.31982      8.39546     10.41995        -0.038620      0.058950      0.024660
