# total energy = -254.09310642 eV
 
CRYSTAL
PRIMVEC
0.009466 6.386863 6.231659 
6.130786 -0.005457 6.245994 
4.105018 4.285535 -0.020937 
PRIMCOORD
36 1
Li	      6.17462      6.36172     12.37436        -0.009112     -0.003950     -0.075190
Li	      4.13665      8.53655      8.29828        -0.019576     -0.018090      0.009199
Li	      6.13500      8.44434     10.38282         0.003623     -0.047627      0.017033
Li	      4.12171      6.37672      2.11855        -0.009910     -0.051625      0.043987
Li	      4.16989      4.33536      4.16370         0.025179      0.071836      0.066837
Li	      6.12980      4.27968      6.18066         0.020878      0.039415     -0.046976
Li	      6.09454      4.33113     10.40260         0.005487      0.041421      0.035665
Li	      2.03730      6.41109      4.18434         0.008922     -0.017020      0.050813
Li	      4.07079      6.38283      6.17214        -0.034101     -0.025361     -0.052193
Ti	      2.12652      4.23229      2.12367         0.216761     -0.021178     -0.069356
Ti	      6.03782      6.49803      4.11535        -0.438896     -0.030000      0.087688
Ti	      4.25818      2.13968      6.27333         0.470032      0.107547      0.070662
Ti	      6.02139      8.53700      6.10764        -0.339822      0.086286     -0.165067
Ti	      4.18626      4.18691      8.34349         0.219681     -0.206827     -0.014258
Cr	      2.07172      8.47829      6.16734        -0.013064      0.041088      0.035379
Cr	      6.08689      4.24734      2.06377        -0.054307      0.102400     -0.028703
Cr	      4.10025      0.02162      4.19097         0.016589     -0.071844      0.106734
Ni	      6.10958      6.40542      8.35246        -0.029874      0.006056     -0.059407
O	      2.05395      2.08167      2.06761        -0.009185     -0.099564      0.115994
O	      4.03179      4.23561      2.09465        -0.144627      0.027824     -0.004033
O	      4.02821      2.07013      4.26139         0.020288     -0.043412      0.066769
O	      6.17881      4.39992      4.07739        -0.042031      0.042277     -0.131683
O	      6.11705      2.15667      6.23184        -0.403106      0.022236      0.063751
O	      8.17619      4.41701      6.23560         0.008327      0.122998     -0.074342
O	      2.07155      4.28797      4.14946         0.022260      0.022785      0.011637
O	      4.21527      6.42919      4.15601         0.283339     -0.019164     -0.087431
O	      4.03531      4.17026      6.29931        -0.122234      0.022569     -0.053624
O	      6.21457      6.48570      6.23411         0.049897      0.030082     -0.064269
O	      6.15830      4.29116      8.29543        -0.164613     -0.073391      0.045126
O	      8.17871      6.40157      8.30491         0.162609     -0.014934      0.044406
O	      2.05148      6.22123      6.31654        -0.045624     -0.205374      0.077217
O	      4.14710      8.49052      6.20275         0.396612      0.031610      0.058989
O	      4.04450      6.28047      8.38947        -0.177190     -0.108335      0.026947
O	      6.21425      8.56977      8.22055         0.060977      0.125054     -0.007341
O	      6.06257      6.42841     10.34138         0.084614     -0.046945      0.110545
O	      8.19250      8.63127     10.32313        -0.018800      0.161156     -0.211503
