# total energy = -258.66321245 eV
 
CRYSTAL
PRIMVEC
0.002811 6.262318 6.346314 
6.312903 0.018497 6.330509 
4.202647 4.158344 0.018323 
PRIMCOORD
36 1
Li	      8.41458      8.35578     12.64706         0.000425      0.033536     -0.039158
Li	      4.34107      8.30217      8.48965        -0.084915      0.034818      0.001219
Li	      4.20877      6.23047     10.46200        -0.026813     -0.026216     -0.016711
Li	      6.30747      8.36369     10.45609        -0.011964      0.013500      0.085424
Li	      6.36938      2.10749      8.38891         0.034625      0.018115     -0.000622
Li	      4.31150      4.11141      4.23097         0.007218     -0.002129     -0.007845
Li	      6.28639      8.31411      6.55888        -0.031206     -0.015070     -0.034741
Li	      8.24742      8.39337      8.55036        -0.000465      0.019514      0.006050
Li	      6.20536      6.46694      8.52140        -0.047814     -0.026382      0.038299
Ti	      8.45069      6.26840     10.50212        -0.010712      0.022141     -0.037749
Ti	      2.15426      4.18558      2.17213        -0.076151     -0.093257     -0.014493
Ti	      2.17556      2.14717      4.14396         0.137317     -0.066682     -0.110991
Ti	      8.38547      6.28952      6.45237         0.043521     -0.006033      0.009391
Ti	      4.17934      6.20154      6.40001        -0.035360     -0.085173      0.223324
Mn	      6.31495      4.09137      6.32747         0.000684     -0.003357      0.043075
Cr	      4.20362     10.38158      6.34306         0.058730     -0.005092     -0.009651
Cr	      6.29946     10.38609      8.48284         0.036369     -0.088211     -0.042151
Cr	      6.28654      4.19417     10.52913         0.011294     -0.005263     -0.056530
O	      2.11671      2.07197      2.17195         0.035158     -0.023562      0.104430
O	      4.18339      4.16179      2.04555        -0.104508      0.023124     -0.023890
O	      4.06804      2.13379      4.38221        -0.216153     -0.006454      0.031598
O	      6.30160      4.28268      4.14560         0.007678      0.129899     -0.046783
O	      6.19114      1.99106      6.31838        -0.100398     -0.090468      0.011646
O	      8.49115      4.18721      6.39385         0.092561      0.066449      0.037366
O	      2.07783      4.18759      4.25885        -0.006333     -0.015219     -0.049497
O	      4.23116      6.28807      4.24873         0.030224      0.021691      0.037223
O	      4.16947      4.20405      6.33969        -0.048778      0.092256      0.021565
O	      6.28611      6.26164      6.31806         0.049414      0.080351     -0.014400
O	      6.51125      4.19259      8.51131         0.183641     -0.021606      0.084097
O	      8.43472      6.30484      8.46351         0.013119      0.007859     -0.061200
O	      2.06761      6.25211      6.36012         0.002870      0.032556     -0.000086
O	      4.18699      8.29560      6.23076         0.014431     -0.024739     -0.004099
O	      4.12488      6.28223      8.34474        -0.012578      0.008632     -0.173770
O	      6.26897      8.45464      8.51332        -0.027372      0.117219     -0.002244
O	      6.38873      6.19752     10.62360         0.075282     -0.005079      0.025093
O	      8.51156      8.24925     10.56264         0.006957     -0.111669     -0.013190
