# total energy = -217.98095967 eV
 
CRYSTAL
PRIMVEC
0.003491 6.292597 6.157576 
6.290718 -0.002222 6.163497 
4.175004 4.180062 0.017346 
PRIMCOORD
36 1
Li	      2.05571      2.11091      0.14330        -0.007050     -0.027680      0.076271
Li	      2.07313      0.05650      1.98396        -0.029641      0.060006      0.042132
Li	      4.07818      2.12909      2.00106        -0.084504      0.013751      0.034016
Li	      6.27481      2.15222      8.08073         0.020710      0.029214      0.016526
Li	      8.34105      4.16130      8.12054        -0.037203     -0.078759      0.048981
Li	      8.42646      6.13911      6.29653         0.016399      0.015135     -0.008851
Li	      6.40571      4.15415      6.26302         0.004591     -0.019077      0.005432
Li	      8.32665      6.28938     10.23859         0.036586     -0.037613     -0.016239
Li	      6.37825      6.23628      8.19065         0.030096     -0.012995     -0.024144
Sc	      4.13783      4.19295      3.96791         0.043260     -0.053187     -0.036521
Mn	      6.30565      8.34762     10.28860        -0.028261      0.105072     -0.045571
Mn	      4.15249      6.32362      6.21801         0.027354     -0.068257     -0.083211
Mn	      4.24485      4.13871      8.18464         0.072295     -0.014703     -0.041270
Cr	      8.35746      4.19928      4.15677        -0.089158      0.130561     -0.094824
Co	      6.25125      6.27712      4.10575         0.012404      0.120118     -0.261257
Ni	     10.41212      4.21985      6.26019         0.421088     -0.178213     -0.075654
Ni	      0.03202      4.19204      4.07949        -0.009229      0.000034     -0.041251
Ni	      6.24382      8.39785      6.24723         0.001212     -0.073859     -0.020795
O	      2.07593      2.09230      2.28581         0.016745     -0.050449      0.140065
O	      4.18091      4.18511      2.04400        -0.014488     -0.001214      0.266253
O	      4.24108      2.04556      4.11663         0.280621     -0.062305     -0.016145
O	      6.32081      4.13528      4.14770         0.086346     -0.216535     -0.023764
O	      6.32614      2.04918      5.99950         0.022335      0.122859      0.013848
O	      8.41788      4.14463      6.09696        -0.302152     -0.015921     -0.091149
O	      2.07625      4.12059      4.14459        -0.014806     -0.014528     -0.088928
O	      4.21752      6.28060      4.26377        -0.106850      0.007581      0.092500
O	      4.15872      4.33076      6.24452         0.069234      0.038643      0.077832
O	      6.13203      6.31118      6.03173         0.035838     -0.103763      0.081343
O	      6.14270      4.20078      8.25387        -0.075156      0.032010     -0.053967
O	      8.38777      6.47659      8.22567        -0.005504      0.040920     -0.053228
O	      2.24011      6.26214      6.14623        -0.126604      0.172093      0.126638
O	      4.19750      8.25235      6.15707        -0.160782      0.116054      0.109238
O	      4.22633      6.18337      8.15624         0.020901     -0.027237      0.040274
O	      6.43760      8.36655      8.32899        -0.018336     -0.029641      0.075645
O	      6.19944      6.34253     10.32389         0.056758      0.146844     -0.183374
O	      8.34091      8.47303     10.15445        -0.165048     -0.064956      0.013148
