# total energy = -220.52997328 eV
 
CRYSTAL
PRIMVEC
-0.000211 6.127088 6.524723 
6.258670 0.011316 6.513074 
4.166710 4.071123 0.012750 
PRIMCOORD
36 1
Li	      8.24476      8.20975     12.79242        -0.043658     -0.033267     -0.030537
Li	      2.09827      6.13880      8.64529        -0.029647      0.050010     -0.044352
Li	      4.20511      6.11828     10.85233        -0.044353      0.041906      0.018783
Li	      6.26626      8.07999     10.96838        -0.044683      0.025425      0.053905
Li	      6.28885      2.04319      8.58859        -0.002477     -0.016825     -0.050948
Li	      8.36146      6.03215      6.55322        -0.048351      0.055739     -0.001666
Li	      6.40336      3.96110      6.52360        -0.042912     -0.020703     -0.012052
Li	      8.15481      6.20981     10.87755        -0.008182     -0.079462      0.061791
Li	      6.24012      6.12205      8.83330         0.023478     -0.028335      0.041524
Sc	      8.31347      8.11161      8.78862         0.192533     -0.068857     -0.090884
Mn	      8.33278      4.11428      8.67805        -0.095046      0.060426     -0.234659
Mn	      2.13280      2.04011      4.36934        -0.040881     -0.033893      0.250713
Mn	      4.22710      4.06127      4.34713         0.057992      0.129706      0.101018
Cr	      4.15974      6.19654      6.51064         0.030701     -0.072952      0.037966
Co	      6.21861      0.15246      6.44618         0.029778      0.055863     -0.015195
Co	      2.10162      4.14627      6.57733        -0.087009     -0.102794     -0.185197
Cu	      4.21561      8.10983      8.75297         0.005404      0.012043     -0.089432
Cu	     10.32537      8.22702     10.86178        -0.060178     -0.153613     -0.082412
O	      6.28462      1.93287      6.53720         0.000451     -0.053973     -0.002319
O	      6.17737      6.06847     10.99155        -0.013598      0.252315      0.006612
O	      2.15213      2.12317      2.41870        -0.021525      0.010898      0.022438
O	      4.06259      4.00418      2.20502        -0.125553     -0.003558     -0.095354
O	      4.03098      2.02579      4.48389        -0.090925     -0.101487     -0.015274
O	      6.13181      4.21640      4.39324         0.283224      0.006852      0.054587
O	      8.39364      4.00919      6.79432         0.008098      0.001281      0.078017
O	      2.27173      4.01189      4.23350        -0.112057      0.056684      0.305861
O	      4.31914      6.17738      4.45845         0.110928      0.036819     -0.039990
O	      4.06410      4.18866      6.49608        -0.171556      0.025660      0.301285
O	      6.19615      6.28954      6.33893        -0.150699     -0.112601      0.064418
O	      6.39082      4.08170      8.74181         0.021283     -0.047369      0.019077
O	      8.35155      6.01385      8.70897         0.029365      0.028990      0.024676
O	      2.11630      6.02704      6.45566         0.192922      0.150123      0.231447
O	      4.33702      8.22206      6.40018         0.131083     -0.076561      0.094249
O	      4.16673      6.15425      8.50490         0.043507     -0.051933      0.013253
O	      6.21796      8.14158      8.58018         0.053693      0.076556     -0.694320
O	      8.22382      8.19040     10.77009         0.018849     -0.019116     -0.097024
