# total energy = -220.69825460 eV
 
CRYSTAL
PRIMVEC
0.033595 6.234982 6.154402 
6.314666 0.019378 6.168612 
4.221097 4.177554 0.001679 
PRIMCOORD
36 1
Li	     10.50810     10.40602     12.27748        -0.015026     -0.019742      0.028177
Li	      4.19869      0.09506      4.17776        -0.023989      0.048850     -0.033422
Li	      2.27072      2.06777      4.23122         0.099418     -0.063367     -0.062454
Li	      4.18934      4.09402      4.20132         0.023281     -0.056683     -0.046618
Li	      8.28449      6.32561      6.08231        -0.078158      0.083558     -0.015332
Li	      6.29493      4.27940      6.20537        -0.052433      0.010140     -0.012663
Li	      2.22564      4.06858      6.09627         0.034743     -0.000881      0.033120
Li	      4.24518      4.18880      8.10363        -0.025059      0.013208     -0.015470
Li	      6.40280      6.15790      8.17563        -0.025214      0.060788     -0.016366
Sc	     10.45258      6.32339      8.24797         0.021186     -0.045154     -0.059980
Mn	      8.42576      2.13703      6.16006         0.079636     -0.075303     -0.068755
Mn	      6.34863     10.35923      8.23037         0.124328     -0.125726      0.107168
Mn	      4.29301      6.17238      6.13845         0.191113     -0.157425      0.245010
Cr	      6.29756      2.08777      4.12181        -0.159335      0.054689     -0.126789
Co	      4.27401      8.32246      8.24323         0.161570     -0.034074      0.159761
Co	      8.42127      6.25543     10.27831        -0.099068     -0.033874      0.032291
Ni	      8.40221      4.21524      8.22659         0.116026     -0.093909      0.028326
Ni	      6.37166      4.26516     10.26558        -0.136087      0.023544      0.154351
O	      2.08085      1.96359      1.96033        -0.210469      0.097298     -0.015707
O	      4.36931      4.14346      2.03241        -0.078332      0.014321      0.032433
O	      4.31933      2.06399      4.08867         0.078891     -0.000376     -0.105042
O	      6.37572      4.11202      3.93450        -0.012700     -0.025927     -0.050907
O	      6.47109      2.10351      6.14097         0.106533     -0.031472     -0.039474
O	      8.46291      3.99541      6.20976         0.014888     -0.030388     -0.052456
O	      2.08086      4.32642      4.07012         0.104450      0.115077      0.024803
O	      4.10527      6.29479      4.19243        -0.090189     -0.033033      0.083390
O	      4.23709      4.32737      6.14684         0.004820      0.207743     -0.016175
O	      6.14991      6.28625      6.14849        -0.176235     -0.013718     -0.000788
O	      6.35537      4.14920      8.26408        -0.022528     -0.039335     -0.123777
O	      8.43578      6.26478      8.32220        -0.016950     -0.010237     -0.000476
O	      2.22866      6.32750      6.14779         0.065981      0.090770      0.012653
O	      4.09634      8.22855      6.20061        -0.122751     -0.030784     -0.067981
O	      4.09358      6.28768      8.08837        -0.074950      0.002189     -0.145946
O	      6.38517      8.48421      8.26356         0.110701      0.045492     -0.032089
O	      6.49673      6.31292     10.27824         0.156406      0.105373     -0.002373
O	      8.43137      8.25095     10.39676        -0.074498     -0.051633      0.169558
