# total energy = -226.98371240 eV
 
CRYSTAL
PRIMVEC
0.009776 6.155002 6.262083 
6.472163 0.007036 6.263931 
4.323762 4.113239 -0.003336 
PRIMCOORD
36 1
Li	      0.11546      6.19334      6.29091         0.056320      0.037163      0.010400
Li	      2.12841      2.06151      0.05435         0.001932     -0.031675      0.010678
Li	      2.08981      0.06582      2.02610        -0.011859     -0.020995     -0.001963
Li	      8.70930     10.22461     10.50336         0.044375     -0.000206      0.050619
Li	      0.18420      2.03522      2.06135         0.025630      0.009263     -0.086102
Li	      8.59534      4.10765      8.30937        -0.004142      0.027687     -0.040552
Li	      2.06063      2.09097      4.08831        -0.002812     -0.002410     -0.001566
Li	      2.15998      6.15354      4.22846        -0.055448      0.032313      0.132953
Li	      6.52901      6.13360      8.38880         0.025866     -0.007053     -0.008721
Sc	      4.12609      2.01744      2.12424         0.060334      0.041198      0.039759
Mn	      6.53429      8.14847     10.43213        -0.029826      0.163595      0.060718
Mn	      6.52340      4.13342      6.27891         0.159245      0.062925      0.015566
Mn	      6.47481      8.21183      6.27978        -0.043718     -0.026687      0.111606
Cr	      4.28468      6.15826      6.24917         0.031949      0.172755      0.033587
Fe	      4.25677      4.21446      4.03732         0.128711     -0.142518      0.090480
Fe	      8.70208      8.20089      8.44634        -0.060115     -0.034416     -0.126865
Co	      4.35387      2.03643      6.26357         0.042591     -0.399756     -0.069420
Co	      6.50096      4.18621     10.39987        -0.074144     -0.158493      0.082822
O	      2.20496      2.05550      2.09444        -0.035520     -0.002445      0.029001
O	      4.32570      4.09383      2.15767        -0.022066     -0.026682     -0.121780
O	      4.34385      2.09956      4.28645        -0.035149      0.007179     -0.036966
O	      6.37370      3.99005      4.31343         0.001826     -0.160371     -0.260691
O	      6.48300      2.19413      6.22277        -0.004084     -0.145371     -0.114299
O	      8.40760      4.24125      6.25724        -0.070004      0.095047     -0.014878
O	      2.24499      4.11569      4.33245        -0.203893      0.008858     -0.141299
O	      4.32598      6.16541      4.24303         0.006966      0.384291     -0.071565
O	      4.45605      4.08933      6.25403         0.073668      0.147766     -0.060431
O	      6.35819      6.12366      6.23278        -0.001034      0.151848     -0.053138
O	      6.40040      4.11078      8.25637         0.009211      0.018847      0.791617
O	      8.61159      6.22754      8.08845        -0.081194      0.059561      0.068275
O	      2.30866      6.01603      6.28115        -0.037584      0.000838     -0.028001
O	      4.33250      8.15526      6.26341        -0.101558     -0.021982     -0.548498
O	      4.32203      6.09133      8.26293         0.016658      0.016350     -0.022250
O	      6.54511      8.19388      8.30662        -0.005822     -0.005767      0.061366
O	      6.50438      6.23479     10.47789        -0.001294     -0.263345      0.082856
O	      8.66702      8.20639     10.35582         0.195984      0.012687      0.136679
