# total energy = -230.34684515 eV
 
CRYSTAL
PRIMVEC
-0.002985 6.373593 6.266031 
6.329732 0.030445 6.234340 
4.259818 4.267339 -0.018902 
PRIMCOORD
36 1
Li	      8.51294      8.55203     12.41140        -0.011951      0.024926      0.058807
Li	      4.24084      8.50272      8.29781        -0.000318     -0.028147      0.006097
Li	      6.46202      8.45603     10.35964        -0.016591     -0.025766      0.049330
Li	      8.31834      4.40171      8.30010         0.013883      0.003904     -0.010344
Li	      6.37650      4.26236      6.37713        -0.002245      0.002339     -0.023507
Li	     10.42886      8.58649     10.33630         0.039113     -0.020887      0.021772
Li	      8.33675      6.63771     10.27569         0.008133      0.049807     -0.021064
Li	      8.51497      8.50277      8.44508         0.003868      0.019754     -0.002088
Li	      6.55896      6.15218      8.43900        -0.011831     -0.019337     -0.007675
Sc	      6.37494      8.49385      6.29671        -0.016841      0.024570     -0.021933
Mn	      6.35607      4.27354      2.06575        -0.029892      0.006923     -0.038877
Mn	      4.26370      4.20490      4.11552        -0.019016      0.017366     -0.007784
Mn	      4.26501      6.43310      6.27398        -0.024369     -0.015136      0.007369
Cr	     10.55272      4.30700      6.20021         0.047034      0.001072     -0.007661
Fe	      4.32634      6.26894     10.40588        -0.087675      0.110847      0.016017
Fe	      6.23137      2.34335      8.30761         0.036466     -0.142664      0.038178
Fe	      2.11676      2.14998      4.10979        -0.011047     -0.011066      0.054823
Co	      8.48340      6.37647      6.24211         0.017391     -0.036799      0.015760
O	      2.01954      1.97757      2.11840         0.075115     -0.045797     -0.061913
O	      4.38502      4.29484      2.05929         0.053183     -0.012182      0.043206
O	      4.11768      2.02133      4.28468         0.090322     -0.005246     -0.027563
O	      6.26138      4.31389      4.01425         0.013046     -0.008339     -0.013964
O	      6.16321      2.05764      6.29959        -0.036149     -0.004342     -0.085756
O	      8.54840      4.41925      6.17985        -0.041860      0.025776      0.025280
O	      2.34201      4.15324      4.14138        -0.006146      0.054357      0.015296
O	      4.34119      6.38213      4.14220        -0.031499      0.036682     -0.061944
O	      4.24612      4.14526      6.12234         0.025394     -0.045600     -0.054896
O	      6.45240      6.40174      6.19033         0.046676     -0.027163     -0.000487
O	      6.35309      4.20705      8.33058         0.018119      0.212747      0.032113
O	      8.52598      6.41556      8.20293        -0.099446      0.015107     -0.087345
O	      2.04560      6.38317      6.39355        -0.046283     -0.006758      0.075111
O	      4.31853      8.59954      6.23393        -0.012924      0.035127      0.050001
O	      4.01538      6.44899      8.38729        -0.082887     -0.032112      0.028233
O	      6.35992      8.74558      8.31658        -0.003300      0.029533      0.000193
O	      6.28382      6.41551     10.48125         0.127177     -0.002353     -0.012511
O	      8.43435      8.66329     10.44903        -0.022648     -0.181144      0.009727
