# total energy = -218.32158262 eV
 
CRYSTAL
PRIMVEC
-0.077530 6.365337 6.136476 
6.290659 -0.058065 6.116946 
4.155870 4.193665 -0.001267 
PRIMCOORD
36 1
Li	      8.26682      2.11875      5.99902        -0.017068     -0.015933      0.134128
Li	      2.12081      6.33107      8.21539         0.005940      0.073167     -0.021215
Li	      4.20522      8.28794      8.24396        -0.034674     -0.008417      0.019756
Li	      8.23221     10.48433     10.18803        -0.028778      0.016235      0.049248
Li	      6.26708      8.41115     10.16345        -0.054864      0.040809     -0.032466
Li	      2.13634      2.03247      4.02489         0.021237      0.012416     -0.046132
Li	      6.17497      4.27851     10.17920         0.019185     -0.048853     -0.012491
Li	      8.22156      6.34043     10.21256         0.045377     -0.039331     -0.030778
Li	      6.14337      6.43240      8.33086         0.041984      0.008162     -0.033083
Sc	      4.26485      4.16321      3.98945        -0.051988     -0.004237     -0.047452
Mn	      8.32948      6.21306      6.10337         0.023217      0.021295      0.046134
Mn	      6.18496      8.42918      6.14014        -0.027990     -0.026444     -0.099096
V	      4.07832      6.41752      6.12005         0.104084      0.010724     -0.200287
Cr	      1.98071      4.16012      2.09258         0.012853      0.037197      0.058229
Co	      4.12599      6.32209      2.07178         0.013911      0.005787     -0.180852
Ni	      6.22197      6.29959     12.18244         0.024061      0.046177      0.108735
Ni	      6.28251      4.16184      6.08648        -0.021671     -0.031547     -0.006151
Ni	      8.28589      8.40187      8.27060         0.053244     -0.024384      0.007338
O	      6.19867      6.30801     10.25549        -0.017177      0.013809     -0.214510
O	      8.29172      8.39394     10.20406        -0.014565      0.017489      0.138238
O	      1.89140      2.20790      2.02622        -0.047787     -0.068574      0.050770
O	      4.03876      4.32804      1.96907         0.022738     -0.032475      0.152048
O	      4.18820      2.10749      4.21695         0.024344     -0.054643     -0.013041
O	      6.24416      4.18882      4.11220         0.084028      0.026866     -0.145912
O	      6.18534      2.07076      6.27474        -0.001875      0.000040      0.121422
O	      8.31616      4.19401      6.22681         0.034733     -0.012221     -0.085331
O	      2.11098      4.23643      4.12827        -0.016814     -0.010381      0.124691
O	      4.14455      6.29528      4.19382         0.002447     -0.011401     -0.076886
O	      4.07054      4.26243      6.14555        -0.116629     -0.026154     -0.044182
O	      6.21189      6.42147      6.14307         0.013175      0.111012     -0.040644
O	      6.25692      4.00063      8.11876        -0.024214      0.003781      0.236261
O	      8.41865      6.21837      8.06532         0.016780     -0.029599      0.049596
O	      2.11250      6.18746      6.12749        -0.054807     -0.082330     -0.024044
O	      4.26620      8.35565      6.15167         0.058015      0.059645     -0.030022
O	      4.14433      6.29150      7.93464         0.012232      0.031092      0.165783
O	      6.24146      8.43253      8.01965        -0.102687     -0.008780     -0.077805
