# total energy = -228.17307885 eV
 
CRYSTAL
PRIMVEC
0.046549 6.292401 6.338101 
6.359920 0.057378 6.327413 
4.258328 4.206091 0.019837 
PRIMCOORD
36 1
Li	      6.33622      0.33061      6.32419         0.016687     -0.030898      0.037437
Li	      8.23943      2.15224      6.35747         0.030482     -0.005924      0.040076
Li	      6.35251      2.18489      4.44750        -0.015639      0.001442     -0.030683
Li	      6.31882      2.13363      8.17482        -0.024327     -0.011969      0.063547
Li	      4.32574      4.22577      4.27989         0.054475      0.011433     -0.025000
Li	      4.49666      2.12405      6.35046         0.008896     -0.014362      0.059213
Li	      6.37012      4.05505      6.40842         0.012389      0.055715      0.070413
Li	      8.51146      6.37816     10.45820         0.013018      0.011538      0.005672
Li	      6.55061      6.25228      8.35363        -0.007341     -0.076758     -0.055408
Sc	      4.28132      2.17437      2.13472        -0.084291      0.017671      0.057517
Mn	      2.10625      0.05299      2.09757         0.014171      0.037088     -0.056931
Mn	      4.27719      6.29828      6.32422         0.043179      0.136052     -0.242733
V	      6.37977      4.32421     10.51617        -0.042654     -0.271157     -0.051265
Cr	      8.54959      8.36147      8.44245         0.042719     -0.041510      0.179812
Fe	      8.45465      4.23753      4.56331        -0.000120     -0.014378     -0.200628
Co	      6.39347      6.29661      4.26858        -0.075089      0.157833      0.075023
Co	      8.46135      4.37280      8.38115         0.077835     -0.077244     -0.061623
Co	      2.20476      4.18308      6.23959        -0.051113      0.088024     -0.035311
O	      6.37686      2.17923      6.29537         0.020895      0.026879     -0.005566
O	      2.19135      2.02420      2.13300         0.014620     -0.146665     -0.003467
O	      4.42525      4.20061      2.13633         0.192635      0.039531      0.021482
O	      4.24938      1.98839      4.17129         0.008772      0.011103     -0.032124
O	      6.47731      4.23037      4.04992        -0.085066     -0.008467     -0.040786
O	      8.48294      4.25694      6.41787         0.004120      0.017504      0.211526
O	      2.02448      4.20504      4.09722        -0.072521     -0.068022      0.079618
O	      4.24247      6.43154      4.43145        -0.025940      0.006936      0.085854
O	      4.27355      4.37167      6.38251        -0.063554      0.001746     -0.016741
O	      6.18149      6.34998      6.35150        -0.041991     -0.078582     -0.073314
O	      6.31664      4.19819      8.59782        -0.013789     -0.014906     -0.056030
O	      8.45859      6.39609      8.45195         0.053324      0.103684     -0.079696
O	      2.29795      6.29063      6.47437         0.067041     -0.013291      0.048053
O	      4.31194      8.25581      6.30951         0.083822     -0.049397     -0.006784
O	      4.19476      6.27202      8.32892        -0.060579     -0.016850     -0.022870
O	      6.47930      8.57088      8.42861        -0.043713      0.014434     -0.048603
O	      6.30139      6.12508     10.63984         0.016588      0.176789      0.028474
O	      8.62341      8.50675     10.45471        -0.067943      0.024979      0.081846
