# total energy = -231.23353337 eV
 
CRYSTAL
PRIMVEC
0.040185 6.213293 6.335817 
6.363876 0.030136 6.345753 
4.263874 4.170266 -0.001211 
PRIMCOORD
36 1
Li	      4.19402      4.07899      0.03316        -0.079952      0.054477     -0.069176
Li	      2.32872      8.35497      6.30578        -0.056065      0.101330     -0.193937
Li	      4.28469      8.31644      8.37952        -0.024073      0.038625      0.116591
Li	      4.33614      6.21130     10.53126         0.043207     -0.131261     -0.002815
Li	      2.19907      4.13509      2.08487         0.019054      0.010004      0.026765
Li	      4.25763      4.16140      4.17562        -0.059762      0.039788     -0.035727
Li	      6.35987      4.22266     10.56972        -0.077626      0.052722     -0.089779
Li	      4.29777      4.19658      8.48468         0.041868     -0.059721      0.178822
Li	      6.30518      6.22978      8.54417        -0.067385     -0.098577      0.067539
Sc	      6.43627      4.16328      6.39066         0.248972     -0.272742      0.083092
Mn	      4.29254      6.22998      2.16384        -0.091500      0.104253      0.087050
Mn	      4.24394      6.28105      6.38816        -0.004370     -0.161299     -0.168247
V	      8.46699      6.22831     10.56589        -0.085044      0.321284     -0.145142
Cr	      2.18034      2.14533      4.21504        -0.090290      0.218904     -0.201578
Fe	      6.40720     10.38080      8.41973        -0.047520      0.149586      0.250592
Fe	      6.36024      8.24895     10.47307         0.503458     -0.265714      0.283375
Fe	      8.55003      6.21097      6.35412         0.235164     -0.057654      0.083189
Co	      6.35981      8.35052      6.39646        -0.289961      0.182474     -0.321361
O	      2.01581      2.06670      2.23560         0.079342     -0.050571     -0.023963
O	      4.37642      4.30692      2.10771         0.020806      0.000719     -0.033563
O	      4.22601      2.11673      4.29160        -0.150945      0.050767      0.049999
O	      6.43908      4.23138      4.18529        -0.084437      0.097728      0.024682
O	      6.26311      2.12410      6.17735         0.007317      0.115126      0.217566
O	      8.49333      4.25461      6.34039        -0.150955     -0.044867      0.030771
O	      2.17493      4.25185      4.24572         0.003768     -1.231624      0.522783
O	      4.31654      6.25753      4.37630         0.368091     -0.025463      0.174768
O	      4.26242      4.20282      6.37155        -0.307797      0.042672      0.046794
O	      6.52593      6.26709      6.26496        -0.171416      0.299846      0.097677
O	      6.38061      4.03627      8.42397         0.026008     -0.031776     -0.221292
O	      8.66517      6.21434      8.51480         0.022550      0.030636     -0.021139
O	      2.08246      6.24156      6.27319         0.057413     -0.594957     -0.070008
O	      4.32666      8.21025      6.36566         0.622465      0.106795      0.079332
O	      4.15340      6.24420      8.32744         0.054818      0.046526     -0.181249
O	      6.36250      8.38668      8.53680        -0.032949     -0.027967     -0.651571
O	      6.50440      6.27116     10.48919        -0.247403     -0.011994      0.008669
O	      8.44202      8.09753     10.56847        -0.234851      1.001924      0.000490
