# total energy = -233.15689113 eV
 
CRYSTAL
PRIMVEC
-0.009880 6.235570 6.323202 
6.435440 -0.002038 6.315409 
4.289895 4.151463 -0.000889 
PRIMCOORD
36 1
Li	      8.61615      8.31271     12.54729         0.040414     -0.027813     -0.042404
Li	      4.37803      8.25377      8.40686         0.087473     -0.033864     -0.050880
Li	      6.43016      8.26876     10.49105        -0.002100     -0.009278     -0.025487
Li	      2.18458      2.09524      4.27136         0.007930     -0.006648      0.008657
Li	      8.49343      6.22334      6.32201        -0.037489     -0.025406      0.023251
Li	      6.43842      4.26006     10.57065        -0.008147      0.022161      0.006369
Li	      8.50570      6.22952     10.56427        -0.021565      0.024490      0.029912
Li	      6.38474      8.27290      6.32362        -0.050182      0.028314     -0.026852
Li	      6.39404      6.29879      8.38984        -0.047778     -0.008178      0.003246
Sc	      2.15377      0.01011      2.10523         0.029907     -0.014250     -0.107466
Mn	      6.43647      4.15565      6.29203         0.034665     -0.006859      0.041755
Mn	      4.30125      6.34295      6.21299        -0.068690      0.112912      0.072186
V	      4.29673      6.29004      2.18635        -0.047750      0.089777     -0.052213
Cr	      2.15589      4.16875      2.11968        -0.014860     -0.058065      0.038160
Fe	      0.05717      6.15235      6.21902        -0.012342      0.139463      0.086041
Fe	      4.36884      6.27875     10.55964        -0.016158     -0.007433     -0.058621
Fe	      4.18193      3.97319      4.32292         0.117326      0.013926     -0.045141
Fe	      8.43897      8.24657      8.50800         0.185143     -0.086212     -0.158543
O	      1.99754      2.15133      2.12222         0.094298     -0.065937     -0.005272
O	      4.22531      4.22642      2.08231         0.063312     -0.079730      0.025129
O	      4.29026      2.05148      4.16815        -0.037855     -0.046010      0.018546
O	      6.38787      4.11284      4.21606        -0.025936      0.015904      0.089203
O	      6.43137      2.13677      6.53762        -0.002080     -0.006626      0.057664
O	      8.63006      4.16440      6.32758         0.016198      0.033934      0.101088
O	      2.25932      4.13691      4.10319        -0.110163      0.025495     -0.013605
O	      4.28430      6.10887      4.02983         0.023305      0.036932     -0.082664
O	      4.30501      4.13261      6.31279        -0.044153     -0.070007      0.078645
O	      6.40973      6.03456      6.32578         0.085953     -0.030191     -0.005510
O	      6.53195      4.09448      8.41807        -0.033827      0.075873     -0.031894
O	      8.71200      6.24046      8.45151        -0.077201     -0.017583     -0.009039
O	      2.03159      6.28636      6.35876         0.043024      0.014518      0.010702
O	      4.30119      8.40630      6.32871        -0.010965     -0.122725      0.022219
O	      4.22738      6.17611      8.49688        -0.058074      0.087334     -0.005811
O	      6.52745      8.32557      8.39126        -0.164208      0.032801      0.001727
O	      6.34453      6.28580     10.61236         0.074490      0.017302     -0.116848
O	      8.60030      8.42057     10.42992        -0.011914     -0.048318      0.123749
