# total energy = -223.25509443 eV
 
CRYSTAL
PRIMVEC
0.051724 6.278040 6.335601 
6.312658 0.034066 6.352600 
4.209116 4.197885 0.021874 
PRIMCOORD
36 1
Li	      2.28870      8.32251      6.28223         0.051479      0.014400      0.071311
Li	      4.31785      8.39505      8.37434        -0.040343      0.028502      0.045109
Li	      4.23210      6.26466      2.22811         0.031281     -0.008176     -0.026948
Li	      4.19434      4.29834      4.21014         0.026277      0.015113     -0.057225
Li	      6.21852      4.15786      6.37177        -0.017655     -0.029477     -0.030626
Li	      4.24608      8.29949      4.31714         0.047207     -0.011045     -0.088028
Li	      2.33803      6.34095      4.20896         0.069382      0.044544     -0.054427
Li	      4.19035      6.42389      6.28039         0.042840     -0.013296     -0.029093
Li	      8.40855      8.38372      8.48328         0.032523     -0.018475      0.010062
Sc	      4.34132     10.41655      6.38581        -0.088898      0.122111      0.108162
Mn	      8.37357      4.14293      4.30993        -0.102893      0.000351      0.086303
Mn	      2.04195      2.15538      4.17542        -0.094159     -0.477111      0.055755
Mn	      8.40458      6.36035      6.41377         0.223785     -0.143311     -0.085427
V	      6.23803      6.20204      8.48460         0.089223     -0.154989      0.140511
Cr	      2.22031      6.26958      8.44989        -0.191469      0.037451      0.063657
Cu	      6.32088      2.12530      4.27158        -0.019005     -0.019395      0.082103
Cu	      2.16493      4.15766      2.11580        -0.009594     -0.189321      0.060890
Cu	      2.15452      4.22783      6.29638        -0.000064      0.011598     -0.043359
O	      4.12701      4.02763      6.30963        -0.054477     -0.024339      0.011040
O	      8.36997      8.52699     10.67943         0.034492      0.044349     -0.057372
O	      2.15060      2.03043      2.27415         0.027537      0.100343     -0.012791
O	      4.40223      4.21519      2.08800         0.186799     -0.074928     -0.065171
O	      4.11449      1.96345      4.42065        -0.097992     -0.047323      0.082656
O	      6.38733      4.37508      4.18884        -0.096127     -0.051172     -0.068486
O	      6.11829      2.14280      6.26998        -0.172747      0.010544      0.199459
O	      8.44329      4.33077      6.48192         0.030612      0.176862      0.131752
O	      2.15363      4.04216      4.04461         0.048445      0.391746      0.003206
O	      4.39502      6.31200      4.23007         0.047326      0.009753      0.041626
O	      6.41713      6.36491      6.33938         0.020225     -0.042303      0.096144
O	      6.24588      4.44630      8.37894        -0.138975      0.168011      0.033680
O	      8.30342      6.32064      8.36195        -0.077266      0.107708     -0.161639
O	      2.20895      6.26311      6.42253        -0.036295      0.048328     -0.014545
O	      4.35742      8.41819      6.33771         0.024920      0.026975     -0.002871
O	      4.28094      6.34535      8.46822         0.107295     -0.060561     -0.126018
O	      6.36794      8.36928      8.64923         0.003583     -0.014053     -0.195557
O	      6.21223      6.21416     10.48719         0.092729      0.020586     -0.203845
