# total energy = -236.25410247 eV
 
CRYSTAL
PRIMVEC
-0.001694 6.335239 6.212119 
6.340253 0.008130 6.202626 
4.229407 4.219600 0.002790 
PRIMCOORD
36 1
Li	      2.09753      2.08646      0.10965         0.005658      0.041551     -0.006861
Li	      2.16514      6.34946      8.25035         0.000947     -0.056589      0.016344
Li	      6.36195      2.14346      4.14898         0.040170     -0.021437     -0.003903
Li	      6.33750      2.14476      8.21155        -0.016839      0.006424     -0.010820
Li	      8.36188      6.32302      6.19755        -0.026587     -0.018199      0.019750
Li	      6.30592      4.33212      6.20588        -0.008086      0.042801     -0.000649
Li	      6.33923      8.36912      6.28590        -0.005084     -0.000113      0.002045
Li	      4.32837      6.33044      6.29347         0.008672     -0.006344     -0.031369
Li	      6.31157      6.33750      8.06147         0.008269     -0.016266     -0.014916
Sc	      4.17504      8.42513      4.20220        -0.078217      0.045984      0.082494
Mn	      8.38705      4.24869      8.15460         0.008709      0.004789      0.050295
V	      6.41576      0.16557      6.25893         0.071937     -0.228612     -0.008327
V	      4.28090      4.20536      4.21695         0.013103     -0.025813      0.057545
V	      4.12563      4.24844      8.15495         0.071458      0.034814      0.005923
Cr	      6.36772      6.30317      4.19226         0.029716      0.049601     -0.007769
Cr	      2.11351      6.32205      4.16469        -0.016109     -0.001340     -0.021385
Co	      4.27342      8.39650      8.24104        -0.055869     -0.038104     -0.083834
Cu	      8.39504      4.22094      4.17384        -0.003577     -0.067581      0.066769
O	      2.11812      2.28994      2.12933         0.034494      0.136360      0.039026
O	      4.25210      4.22123      2.10021        -0.085901      0.016434     -0.054905
O	      4.15501      2.22605      4.09350        -0.009452      0.196100      0.038283
O	      6.30803      4.33249      4.14267         0.084309      0.109971     -0.094573
O	      6.35136      1.91515      6.21079        -0.019584      0.221101     -0.006934
O	      8.58943      4.20735      6.18053         0.023009      0.031136      0.170741
O	      2.13448      4.24780      4.05658        -0.054741     -0.025728     -0.039079
O	      4.20714      6.27532      4.16881        -0.006815     -0.033568     -0.013953
O	      4.22530      4.22216      6.19662         0.020327     -0.010462      0.108767
O	      6.33350      6.35897      6.10194         0.004697     -0.016324     -0.035565
O	      6.15683      4.20389      8.28911        -0.014477     -0.038150      0.020838
O	      8.43136      6.29288      8.33504        -0.050062     -0.105290     -0.006503
O	      2.01844      6.34747      6.15636        -0.071628      0.017891     -0.062815
O	      4.24595      8.58124      6.23921         0.017942     -0.004741     -0.039411
O	      4.22470      6.21889      8.38280        -0.013079     -0.043574     -0.099383
O	      6.54241      8.41067      8.28470        -0.005793     -0.010033     -0.002464
O	      6.43277      6.29517     10.47385         0.061005     -0.009726      0.028632
O	      8.46967      8.30914     10.23860         0.037476     -0.176964     -0.062034
