# total energy = -243.99895252 eV
 
CRYSTAL
PRIMVEC
0.026713 6.283911 6.334022 
6.285584 0.022214 6.338502 
4.221530 4.223239 -0.016237 
PRIMCOORD
36 1
Li	      8.38623      2.26230      6.21618         0.041418      0.058220      0.049655
Li	      8.44360     10.41992     10.63782         0.012599      0.018657     -0.000305
Li	      8.34036      4.26218      8.52878         0.000210      0.023397      0.073941
Li	      2.10913      2.14972      4.15510        -0.037636      0.023783      0.030423
Li	      4.15794      4.18677      4.21954        -0.029847      0.028794     -0.036362
Li	      6.40717      4.19359      6.31515         0.045148      0.004313      0.023800
Li	      6.26525      4.24349     10.49450         0.002590     -0.014803      0.010018
Li	      8.39002      6.37102     10.47699         0.035650     -0.030668     -0.051939
Li	      8.49214      8.38613      8.55266         0.020592     -0.023364      0.012385
Sc	      4.21729      6.24338      6.16563         0.017160     -0.047086     -0.128963
Mn	      6.42657      8.43556     10.58609         0.046879     -0.014890      0.027182
V	      6.36407      4.20584      2.18187        -0.023329      0.128055      0.031945
V	      4.13057      2.15336      2.18681        -0.177828      0.030697      0.013064
V	      6.29693      2.24137      8.54638        -0.043018     -0.017355      0.063849
Cr	      6.29066      6.30206     12.64434        -0.010344      0.048672      0.027160
Cr	      8.41139      6.31407      6.30628         0.009960      0.039006      0.113055
Cr	      6.33083      6.24479      8.50245         0.165495     -0.158209     -0.027678
Fe	      2.13157      4.18116      6.13190        -0.063544     -0.030444      0.059103
O	      2.13970      2.05592      2.15982         0.269656     -0.126606     -0.051676
O	      4.32607      4.28095      2.00369         0.024515     -0.100463     -0.030501
O	      4.33640      2.14708      4.22846         0.022220     -0.033847     -0.053209
O	      6.34951      4.11477      4.10280        -0.038871     -0.066850      0.018661
O	      6.20539      2.05415      6.47735         0.014799     -0.048531     -0.110136
O	      8.52665      4.33473      6.31542         0.009840      0.024699     -0.003004
O	      2.09258      4.17067      4.29829        -0.014292      0.027521     -0.100216
O	      4.22105      6.30604      4.15790        -0.011434     -0.032113      0.061292
O	      4.13759      4.18039      6.30781         0.004635      0.009530     -0.005630
O	      6.34642      6.32179      6.42494        -0.014298      0.007885      0.049332
O	      6.29174      4.21753      8.46407         0.010764      0.176795     -0.026943
O	      8.35879      6.33393      8.32788        -0.177541      0.003022     -0.066359
O	      2.10785      6.21548      6.43050        -0.038392      0.024520      0.048841
O	      4.25349      8.45420      6.41617         0.015435      0.006876      0.066267
O	      4.22621      6.35008      8.36459         0.044472      0.012507     -0.002418
O	      6.19132      8.32701      8.36687         0.003397     -0.008574     -0.046939
O	      6.35008      6.40649     10.55914        -0.084861      0.047830     -0.022273
O	      8.30231      8.41566     10.58263        -0.052200      0.009025     -0.015421
