# total energy = -243.90526360 eV
 
CRYSTAL
PRIMVEC
0.020963 6.299150 6.332316 
6.280127 0.020039 6.333487 
4.201158 4.214595 -0.001020 
PRIMCOORD
36 1
Li	      2.18444      0.04478      2.19026        -0.009907      0.040317      0.050989
Li	      4.18381      8.29543      8.43370        -0.000654     -0.023447      0.020231
Li	      4.19962      6.33786     10.39158        -0.004393      0.006740     -0.004551
Li	      6.24975      6.32816      4.18267        -0.033388      0.037393     -0.045529
Li	      4.20761      4.24642      4.18003        -0.007955     -0.041820     -0.139308
Li	      8.32451      6.38646      6.37018         0.013392      0.021936     -0.017782
Li	      4.24552      8.35892      4.23119         0.020761      0.017747     -0.013694
Li	      4.22905      6.34931      6.36180         0.006731      0.017912      0.089058
Li	      6.22940      6.34200      8.45002        -0.017441     -0.037308      0.036337
Sc	      6.21677      4.37476      6.26605         0.019699     -0.015712     -0.072435
V	      6.14166      2.14108      4.14152        -0.033453      0.064762      0.074193
V	      2.16709      6.26857      4.23047         0.997247      0.282375     -0.959204
V	      4.22212      4.30233      8.47533         0.123667     -0.182520      0.195522
Cr	     10.46866      4.24011      6.34667         0.041976      0.002762      0.103905
Cr	      2.19117      8.38082      6.35703        -0.087208     -0.137389     -0.149943
Cr	      2.11237      4.20046      2.14760        -0.021022      0.054303      0.419871
Cr	      6.31790      8.34605      6.33173        -0.068575      0.148825     -0.159672
Co	      4.25233      6.28011      2.22846        -0.721221     -0.007517      0.767167
O	      2.11918      2.18779      2.01975         0.002719      0.004804     -0.055595
O	      4.08228      4.23181      2.00821         0.027305     -0.129366     -0.037624
O	      4.39504      2.08103      4.20953         0.079911     -0.021659     -0.019267
O	      6.30360      4.10375      4.23978         0.015363     -0.067712      0.009231
O	      6.40335      2.09705      6.22497        -0.005705     -0.001079     -0.052151
O	      8.41482      4.13327      6.44232         0.013623      0.017665     -0.078124
O	      2.09608      4.26984      4.24861         0.029944     -0.465614      0.006831
O	      4.10091      6.32570      4.23287        -0.194063     -0.069475      0.219450
O	      4.13543      4.19407      6.40012         0.014887      0.032859     -0.101528
O	      6.32036      6.38216      6.25500        -0.041185     -0.065608      0.061332
O	      6.29655      4.19704      8.39481         0.073601      0.171367     -0.027863
O	      8.40215      6.29407      8.48835        -0.306898     -0.009165      0.143737
O	      2.03033      6.29545      6.34039        -0.007777     -0.016476     -0.253343
O	      4.23083      8.51549      6.31549         0.013680     -0.008282      0.055012
O	      4.23473      6.18992      8.45774        -0.016612      0.118092     -0.105699
O	      6.40035      8.39278      8.43901        -0.003922     -0.046613     -0.040003
O	      6.37363      6.42575     10.64490         0.092798     -0.009877      0.100065
O	      8.29858      8.34929     10.61945        -0.005926      0.316779     -0.019618
