# total energy = -241.95699391 eV
 
CRYSTAL
PRIMVEC
0.012835 6.222579 6.351481 
6.330289 -0.002392 6.366621 
4.223691 4.161757 -0.004853 
PRIMCOORD
36 1
Li	      0.10485      6.19229      6.33704        -0.011128     -0.024459      0.017948
Li	      8.42738      8.24384     12.66538         0.021971      0.003712     -0.069641
Li	      4.25252      1.98480      2.25008         0.003389      0.008902      0.017089
Li	      4.20779      6.23270     10.48112         0.000803     -0.021616      0.062617
Li	      6.35516      8.27921     10.54889         0.009393     -0.050817      0.052363
Li	      4.28483      4.13038      4.16050        -0.028185      0.010223     -0.039621
Li	      2.11357      6.26783      4.28379         0.012669     -0.030649      0.039545
Li	      4.20196      6.26060      6.42358        -0.036044      0.019792      0.069293
Li	      6.20920      6.31796      8.52573        -0.093104      0.005270      0.029059
Sc	      4.23933      2.03518      6.21885        -0.027119     -0.004099     -0.089774
V	      2.17796      4.11147      2.14660         0.117690     -0.082634     -0.037990
V	     10.49295      8.41208     10.67164         0.002252     -0.000749      0.097162
V	      6.30434      8.33873      6.35196        -0.006628     -0.065007      0.005600
Cr	      2.11955      0.00824      2.13829         0.027076     -0.007329      0.047051
Cr	      0.03546      2.06503      2.09050         0.022123     -0.137669      0.011046
Cr	      6.31239      4.19944      6.31131        -0.007374      0.073620     -0.159790
Cr	      8.42170      8.31887      8.53693        -0.065541      0.014125      0.051071
Cu	      2.13996      2.06212      4.22141         0.029918      0.047135      0.006410
O	      2.05517      2.08051      1.98490        -0.118454      0.087851     -0.164717
O	      4.25438      4.23991      2.11811        -0.008537      0.072166     -0.043908
O	      4.14922      2.06377      4.24066         0.176190      0.020533      0.006030
O	      6.29204      4.22125      4.29501         0.027691     -0.114683      0.022495
O	      6.30605      2.18205      6.39598        -0.004995     -0.016061      0.047862
O	      8.31800      4.17259      6.50939        -0.042818     -0.035319     -0.026386
O	      2.06101      4.14769      4.19920        -0.031378      0.113039      0.010567
O	      4.34596      6.41880      4.08189        -0.083707     -0.044933     -0.064016
O	      4.21919      4.14466      6.46663         0.055510      0.002138      0.049598
O	      6.36376      6.25212      6.50726         0.017592     -0.062504      0.166577
O	      6.30483      4.10530      8.43587        -0.026710     -0.021002     -0.015368
O	      8.57403      6.19993      8.47384         0.055152     -0.045736     -0.018337
O	      2.11982      6.10588      6.48551         0.030280      0.113054     -0.030198
O	      4.33177      8.27806      6.20273        -0.032247      0.009456     -0.010659
O	      4.10894      6.12499      8.51018         0.025896      0.039637     -0.008845
O	      6.42161      8.37432      8.46993         0.006816     -0.024678      0.002982
O	      6.35002      6.03067     10.56337         0.054359      0.117546     -0.007046
O	      8.57298      8.25405     10.52657        -0.072800      0.031745     -0.026071
