# total energy = -229.48183451 eV
 
CRYSTAL
PRIMVEC
0.000569 6.331359 6.438162 
6.269968 0.017202 6.421291 
4.183273 4.213126 0.008105 
PRIMCOORD
36 1
Li	      6.16212      4.33981      2.20830         0.010161     -0.009755      0.009872
Li	      8.27963      4.28519      4.29784         0.058567     -0.092671     -0.033969
Li	      4.24072      6.19680      2.11508        -0.034525      0.016893     -0.003772
Li	      2.18516      4.14033      2.17075        -0.046348     -0.024946      0.003290
Li	      2.16416      2.01473      4.25286        -0.084606     -0.000990     -0.002090
Li	      8.35259      6.25006      6.40249        -0.006762     -0.003657      0.058714
Li	      6.32518      4.23661      6.32591        -0.068318      0.032851      0.037737
Li	      2.07710      4.25618      6.38043         0.022560      0.010962      0.001674
Li	      4.15389      6.37269      6.45600        -0.005623     -0.005952      0.018789
Sc	      6.17815      2.19819      4.35195         0.118769     -0.196535     -0.074475
V	      2.07536      2.16215      0.10874         0.102904     -0.168411     -0.182054
V	      4.26706      8.36143      4.32287        -0.071988      0.239570     -0.008668
V	      6.28752      6.32157      8.41004         0.011717     -0.039771      0.250025
V	      4.18444      4.25900      8.40729         0.042555      0.019331      0.112918
Co	      4.18238      4.22402      0.10218         0.094405     -0.007870     -0.008021
Co	      4.13216      2.13117      2.19164        -0.013746      0.038931     -0.030002
Co	      2.14196      6.30016      4.29748        -0.054401      0.016864      0.030138
Cu	      4.12736      4.18444      4.23017        -0.036705     -0.020606      0.080888
O	      2.11488      2.08598      1.98670        -0.033446     -0.031321      0.140810
O	      4.17270      4.13890      2.11384         0.006789     -0.024040     -0.137017
O	      4.17154      2.06996      4.32309        -0.049437     -0.047282     -0.020627
O	      6.09917      4.20173      4.30257         0.011495      0.109492     -0.011570
O	      6.35087      2.12923      6.42312        -0.115388     -0.021667     -0.056714
O	      8.36986      4.01347      6.37599        -0.001825      0.138798     -0.014660
O	      2.08444      4.25215      4.33634         0.054178      0.053005     -0.057052
O	      4.23830      6.57027      4.28356         0.019708     -0.139455     -0.034541
O	      4.15771      4.27058      6.66793         0.026379      0.005800     -0.035877
O	      6.31619      6.29575      6.67113        -0.004264     -0.008073     -0.173761
O	      6.17618      4.34444      8.70388         0.017604     -0.020768      0.005955
O	      8.27233      6.48035      8.63824         0.058730     -0.012032      0.036338
O	      2.08960      6.55950      6.33948        -0.013545      0.042033     -0.058194
O	      4.14672      8.45326      6.32186        -0.046421      0.022831     -0.004157
O	      4.30283      6.26807      8.59386         0.007572      0.049776      0.009643
O	      6.35480      8.31921      8.64318        -0.049458      0.046431      0.102405
O	      6.27168      6.22489     10.63156         0.084891      0.022318      0.021397
O	      8.42516      8.47213     10.66148        -0.012174      0.009914      0.026629
