# total energy = -91.83159784 eV
 
CRYSTAL
PRIMVEC
-2.148465 4.276253 -2.145502 
2.121287 4.248893 2.118164 
2.175486 0.013646 -6.436149 
PRIMCOORD
16 1
Li	      0.09155      4.42576     -4.54149         0.371851     -0.021175      0.236174
Li	      2.17827      6.62552     -4.42536        -0.104959     -0.349461      0.109197
Li	     -0.03354      4.41149     -0.13953        -0.195807      0.031551      0.503439
Li	      2.23414      2.21427     -4.44260        -0.021203      0.350874      0.012704
Mn	      0.11334      0.15163     -0.11222        -2.487360     -0.052497      1.265235
Mn	     -0.00218      6.62605     -2.24814         0.757407     -1.431753      0.078778
Ni	      0.01633      2.21600     -2.23816         0.308067      0.483965     -0.028928
Ni	      2.24708      4.41495     -2.27255        -0.060165      0.072265     -1.260213
O	      0.00701      4.43695     -6.82338         0.310763     -0.049647      1.059382
O	     -0.07032      2.33933     -4.32171        -1.040248     -0.736857      0.463210
O	      2.38985      4.41940     -4.44645         0.554969      0.061604      0.394942
O	      2.18227      4.29724      0.05539        -0.073094      0.100224     -1.329266
O	      2.17481      2.23979     -2.08254        -0.813726      0.931789      0.760184
O	      0.02261      6.75341     -0.14185         0.769790     -0.610992     -1.287682
O	     -0.08560      4.52951     -2.20977         0.810335      0.444001      0.211116
O	      0.11686      2.07437     -0.04935         0.913380      0.776109     -1.188273
