# total energy = -243.40201233 eV
 
CRYSTAL
PRIMVEC
0.001597 6.294247 6.284543 
6.288218 -0.003630 6.289620 
4.192198 4.199715 -0.002595 
PRIMCOORD
36 1
Li	      4.25653      4.15145      0.11631         0.009806     -0.019096      0.041882
Li	      2.08780      6.27526      8.34226        -0.000048      0.044476     -0.004863
Li	      4.21032      8.42174      8.30693        -0.032191     -0.000455      0.004729
Li	      4.22112      6.20333      2.18354         0.015771      0.027580     -0.041186
Li	      1.95411      2.14504      4.06435        -0.051201      0.003197     -0.084305
Li	      4.25608      8.27281      4.18167         0.007495     -0.056486     -0.032120
Li	      4.16817      6.35583      6.38119        -0.007666      0.024647      0.035436
Li	      4.12035      4.24196      8.35490         0.037968      0.012922      0.002563
Li	      6.26534      6.37565      8.38477         0.022495     -0.028304     -0.004441
Sc	      4.24463      6.28941     10.26459         0.105664      0.011062     -0.050878
Ti	      6.26075      4.28884      6.44032         0.165745      0.014658      0.716981
Cr	      6.29588      8.40785     10.39899         0.029901     -0.068889     -0.072656
Cr	      4.18925      4.23128      4.13581        -0.149062      0.030082     -0.180949
Cr	      8.42406      6.28174      6.35868         0.010005     -0.082385      0.124243
Cr	      8.38838      6.29195     10.43488        -0.018614     -0.094671     -0.109643
Cr	      6.21342      8.42122      6.37838        -0.058741     -0.016648     -0.121545
Fe	      2.26696      8.28899      6.40820        -0.117103      0.093802     -0.010140
Co	      2.13825      4.16230      2.09512        -0.065689     -0.038896      0.039915
O	      2.06975      2.12163      1.98395         0.095300      0.477653      0.161563
O	      4.13840      4.17700      2.19573        -0.504000     -0.027548      0.013563
O	      4.28008      2.13378      4.30899         0.019729      0.026146     -0.006605
O	      6.24097      4.15404      4.24975        -0.000793      0.028848      0.052721
O	      6.27313      2.24322      6.18152        -0.057673     -0.011445     -0.026143
O	      8.26491      4.22667      6.21008        -0.090291      0.064870      0.026252
O	      2.15040      4.26470      4.33518         0.057468     -0.010895     -0.006834
O	      4.09358      6.20073      4.19706         0.023101     -0.028117      0.028311
O	      4.23212      4.10529      6.26422        -0.032583      0.035163     -0.053987
O	      6.39128      6.26276      6.28809        -0.023129      0.002735     -0.038363
O	      6.29094      4.17379      8.25627         0.334967      0.035106     -0.474878
O	      8.38705      6.21720      8.37199         0.106578     -0.432275     -0.027399
O	      2.07361      6.28212      6.19396        -0.006406     -0.122227     -0.004430
O	      4.20535      8.40761      6.25966         0.196605     -0.004253     -0.022469
O	      4.18740      6.27445      8.37453         0.002444      0.004160      0.049470
O	      6.30146      8.41055      8.36800        -0.004819      0.022767      0.039484
O	      6.32967      6.41063     10.45106        -0.002086      0.057366      0.020782
O	      8.32762      8.34879     10.55584        -0.018946      0.025352      0.015939
