# total energy = -236.29280107 eV
 
CRYSTAL
PRIMVEC
-0.027797 6.319365 6.361796 
6.295487 -0.003719 6.337566 
4.182625 4.182481 0.012052 
PRIMCOORD
36 1
Li	      6.34441     10.41807      8.51038        -0.007979      0.011231     -0.006239
Li	      8.28221      4.28375      8.48980        -0.007759      0.005820     -0.017008
Li	      4.18588      4.17558      4.47670         0.002397     -0.007423     -0.002768
Li	      8.24850      6.44282      6.46179         0.030907     -0.045621      0.080678
Li	      6.13852      4.31952      6.36640         0.039202     -0.033256     -0.005744
Li	      2.27495      4.16145      6.41584        -0.071481      0.030366      0.024636
Li	      4.22208      6.09980      6.43923        -0.004779      0.051490      0.044845
Li	      4.11540      4.21149      8.26140        -0.013285      0.001180      0.097823
Li	      6.33565      6.30120      8.33068        -0.017878     -0.004594     -0.007656
Sc	     10.36676      6.36854      8.47599        -0.000442     -0.023856     -0.074186
Ti	      4.20899      4.16943      0.07659         0.053306      0.092062      0.256110
Cr	      2.09275      2.08157      0.02595        -0.083075     -0.022537      0.079416
Cr	      4.21294      8.35651      8.46595         0.002421      0.005112      0.001054
Cr	      4.15047      6.31391     10.53490         0.010814      0.021513     -0.052895
Cr	      6.27979      6.28825      4.33367         0.047908     -0.005633     -0.044749
Cr	      0.01951      4.21228      4.20941        -0.017763      0.010361     -0.018697
Ni	      6.26386      2.16511      4.17562        -0.008370      0.004443      0.042709
Ni	      2.07785      6.23394      4.20570         0.046405     -0.005103      0.018029
O	      4.19522      4.18573      6.35410         0.001432      0.001021      0.038907
O	      2.14057      2.09360      2.07702         0.013464      0.008708     -0.014115
O	      4.18390      4.15194      1.95675        -0.003283     -0.024192     -0.304560
O	      4.14476      2.02353      4.11470        -0.081965      0.027851      0.022554
O	      6.38572      4.25600      4.24750        -0.051966      0.089812     -0.006046
O	      6.36287      1.98081      6.31351         0.023566     -0.104175      0.066413
O	      8.51766      4.08892      6.23388         0.071332      0.026505      0.001543
O	      1.98968      4.12557      4.24497         0.004962     -0.054339     -0.016962
O	      4.23639      6.37550      4.22810         0.066186     -0.035276      0.039247
O	      6.28615      6.29172      6.19441        -0.002990      0.020708      0.030906
O	      6.27280      4.19199      8.58856        -0.015164      0.005907      0.002345
O	      8.40127      6.26627      8.55232        -0.044294      0.039176     -0.200428
O	      1.94500      6.38632      6.24825        -0.144167     -0.001237      0.130824
O	      4.08175      8.47883      6.37202         0.040093      0.036137     -0.059336
O	      4.17462      6.42079      8.56590         0.010808     -0.022476     -0.017232
O	      6.13805      8.43471      8.54912         0.070413     -0.039724     -0.177689
O	      6.23393      6.26233     10.67299        -0.066026     -0.083187      0.039997
O	      8.39059      8.44349     10.70381         0.107049      0.023227      0.008274
