# total energy = -248.14435545 eV
 
CRYSTAL
PRIMVEC
0.036012 6.385829 6.254207 
6.308095 0.042658 6.247272 
4.220207 4.267127 0.013728 
PRIMCOORD
36 1
Li	      2.38527      6.40265      8.35301        -0.043410     -0.010088      0.009465
Li	      4.23516      8.26157      8.36870        -0.013326      0.040773     -0.006034
Li	      4.25248      6.44052     10.20219         0.018234      0.010344      0.128213
Li	      8.41548      4.29134      8.31764        -0.027921      0.010380     -0.013136
Li	      2.14112      2.13857      4.05276         0.016340      0.005934     -0.028050
Li	      8.38629      6.48708      6.37895        -0.015602      0.073055      0.111705
Li	      4.26180      6.40246      6.50068         0.031680      0.001193     -0.085817
Li	      4.16880      4.47060      8.35823         0.044695     -0.026119      0.015708
Li	      6.15757      6.53510      8.34260         0.045213     -0.001449      0.005149
Sc	      6.34423      4.51098      6.32568         0.030902      0.110188      0.043832
Ti	      4.23250      4.16527      4.07168        -0.003522     -0.256439      0.005548
Cr	      4.17508      4.26164      0.05484        -0.111820     -0.088432      0.009272
Cr	      2.14319      2.10273      0.07630         0.121071      0.023193     -0.082289
Cr	      6.35084      8.54665     10.32492        -0.058429     -0.002275     -0.027801
Cr	      4.22437      6.39179      2.10463        -0.054442      0.033700      0.002556
Cr	      8.44393      6.41946     10.38005         0.019377     -0.073017     -0.034357
Cr	      6.40017      8.48496      6.37327        -0.061213     -0.001857     -0.071141
Fe	      6.31968      4.31683     10.32090         0.035418      0.005214      0.066647
O	      2.02139      2.11929      2.01229        -0.038497     -0.011711      0.046933
O	      4.17178      4.36125      2.12027         0.022778     -0.018199      0.054160
O	      4.29043      2.28765      4.12567         0.023324      0.287966      0.000869
O	      6.18983      4.19757      4.22291        -0.105869     -0.015750     -0.026139
O	      6.39383      2.11321      6.24074        -0.013357     -0.027235     -0.004406
O	      8.45709      4.17246      6.23182         0.013122     -0.039891      0.013986
O	      2.21563      4.31962      4.29522         0.112509      0.032010     -0.025181
O	      4.16973      6.30012      4.09541         0.013081     -0.057446     -0.048361
O	      4.19535      4.29519      6.11211         0.024804     -0.002717     -0.058073
O	      6.38054      6.48952      6.24165        -0.000825      0.012188      0.015610
O	      6.34126      4.18695      8.33843         0.020817     -0.095718     -0.175683
O	      8.54537      6.39815      8.42889         0.008829      0.004302     -0.042595
O	      2.02284      6.36814      6.20845         0.028023      0.013692     -0.007551
O	      4.25137      8.63669      6.19016         0.012770      0.033535      0.116283
O	      4.26455      6.38344      8.35317        -0.029009     -0.016942      0.030557
O	      6.34928      8.55952      8.34836         0.007930     -0.011822      0.050709
O	      6.41232      6.52219     10.52181         0.010400      0.066092     -0.001789
O	      8.37299      8.43214     10.52670        -0.084076     -0.006653      0.011200
