# total energy = -244.04580130 eV
 
CRYSTAL
PRIMVEC
-0.008984 6.350286 6.319997 
6.364673 0.004880 6.306204 
4.242060 4.223333 0.004199 
PRIMCOORD
36 1
Li	      4.26125     10.45657      6.40659         0.033143     -0.044801      0.008302
Li	      2.21456      8.44356      6.39260         0.012547     -0.018677      0.028931
Li	      2.08553      6.33027      8.33619        -0.013884     -0.019089     -0.029111
Li	      4.32775      8.40524      8.26977        -0.004486     -0.011700      0.031848
Li	      4.23751      4.18852      4.24603         0.002694     -0.016064      0.021173
Li	      4.19623      2.14702      6.26839        -0.004490      0.042028     -0.022632
Li	      6.20661      8.37897      6.43243        -0.019633     -0.021818      0.019099
Li	      4.30034      6.47694      6.41045        -0.027170     -0.063791      0.035566
Li	      6.25827      6.46070      8.30556        -0.051843     -0.002233     -0.023775
Sc	      4.10451      4.27481      8.29167        -0.108149      0.097087     -0.113197
Ti	      2.10854      6.27925      4.38661        -0.007139      0.048819      0.734647
Mn	      6.24864      2.14833      4.22438         0.013821      0.012745      0.017397
Cr	      4.25997      0.02384      4.21677         0.002296      0.004898      0.005146
Cr	      6.37831      2.09203      8.35677         0.037834     -0.045964     -0.079416
Cr	      2.15701      2.12833      4.24331        -0.007166     -0.028329     -0.025492
Cr	      4.23803      8.45606      4.30484        -0.010404      0.024115      0.034312
Fe	      8.58639      4.22624      8.26736        -0.045330     -0.015133      0.062171
Fe	      6.31324      4.28720      6.32299         0.100164     -0.005462     -0.034787
O	      2.02238      2.21825      2.20519        -0.002060     -0.055933      0.002072
O	      4.14905      4.32236      2.10377         0.117225      0.059620      0.010474
O	      4.14357      2.00545      4.20590        -0.090437      0.008051      0.011523
O	      6.48169      4.32282      4.26353         0.020117      0.096606     -0.032996
O	      6.37607      2.23746      6.35350         0.023072     -0.012834      0.078871
O	      8.42697      4.23531      6.30578        -0.026300      0.033861     -0.101115
O	      2.04702      4.27262      4.16627        -0.001879      0.037381     -0.014684
O	      4.18753      6.41407      4.13307         0.001067      0.000415     -0.019055
O	      4.35351      4.23632      6.30579        -0.076848     -0.011505      0.003629
O	      6.36426      6.27643      6.22988         0.001171      0.068477     -0.036336
O	      6.41198      4.16780      8.42271         0.009303     -0.022685      0.095299
O	      8.56570      6.29464      8.52475         0.041502      0.036169      0.025122
O	      2.15177      6.33577      6.16508        -0.033267     -0.041195     -0.625791
O	      4.23229      8.44674      6.21427         0.004323     -0.000682     -0.037000
O	      4.26051      6.28894      8.56998        -0.011917      0.009633     -0.015632
O	      6.37385      8.46080      8.45537         0.008917     -0.011927     -0.087514
O	      6.43087      6.28380     10.54483         0.038079     -0.108988      0.024159
O	      8.56099      8.39990     10.50232         0.075126     -0.021094      0.048792
