# total energy = -235.23847028 eV
 
CRYSTAL
PRIMVEC
0.063289 6.187526 6.288659 
6.389975 0.035250 6.316797 
4.269408 4.153404 0.013786 
PRIMCOORD
36 1
Li	      6.31218      0.09981      6.25569         0.022893     -0.016977     -0.306256
Li	      4.24026      2.12747      2.32219        -0.002415     -0.134063     -0.215255
Li	      4.32841      0.15258      4.16517         0.222569     -0.164264      0.003083
Li	      6.21813      1.98103      4.19920         0.198599     -0.227323      0.018111
Li	      4.22275      6.17880      2.17033        -0.047371      0.214915     -0.032597
Li	      2.26019      2.05159      4.13186        -0.050851      0.026409     -0.003795
Li	      4.37230      2.00619      6.22681         0.063287     -0.038078      0.167798
Li	      8.52285      6.23658     10.39127        -0.238855      0.076978      0.032166
Li	      6.48433      6.23467      8.54763         0.029749     -0.010926      0.100218
Sc	      6.44562      8.21402      6.25928        -0.241236     -0.002996      0.163613
Ti	      8.41311      2.15599      6.31490        -0.378818      0.051434     -0.472736
Mn	      8.55631      8.21700      8.49235         0.087317     -0.073475      0.325498
Cr	      6.36834      4.17325      2.20497         0.720876     -0.034537     -0.241250
Cr	      6.42147      4.19308      6.26056         0.168680     -0.105672      0.373551
Cr	      6.45690      4.20458     10.46579        -0.287926      0.127569     -0.086964
Cr	      4.29489      6.22487      6.29153        -0.020570      0.039099      0.222155
Ni	      2.23534      4.21738      2.12779        -0.290300      0.009531     -0.062958
Ni	      4.32454      4.13519      4.14770         0.014892     -0.487236     -0.377500
O	      4.27479      2.17877      4.24090        -0.121097      0.645408      0.034299
O	      2.19997      2.04308      1.95447         0.023701     -0.029730      0.067714
O	      4.34428      4.16547      2.16370        -0.201811      0.056990      0.611156
O	      6.39360      4.18723      4.23364        -0.317690      0.025328     -0.049514
O	      6.54421      2.17454      6.26708         0.352507     -0.034642      0.073631
O	      8.43293      4.11281      6.41369         0.033692     -0.098812     -0.163529
O	      2.11324      4.15299      4.16389         0.561741     -0.083006      0.109174
O	      4.27776      6.24807      4.31400         0.064104     -0.569989     -0.112745
O	      4.34860      4.20332      6.21618        -0.054083      0.075598     -0.385559
O	      6.29182      6.17964      6.33556         0.048815      0.068759     -0.091142
O	      6.32006      4.14742      8.38829         0.029604     -0.054963     -0.193812
O	      8.56169      6.31813      8.38475         0.075067     -0.006182     -0.127988
O	      2.24506      6.23945      6.42688        -0.015655      0.035096      0.023443
O	      4.33071      8.22665      6.20553        -0.042428      0.001181      0.258168
O	      4.18867      6.05910      8.33714        -0.064707      0.145413     -0.008977
O	      6.56269      8.33142      8.36370        -0.192915      0.103064     -0.001319
O	      6.43479      6.10923     10.53496        -0.021868      0.445189      0.015150
O	      8.73073      8.28582     10.67088        -0.127500      0.024910      0.334963
