# total energy = -248.34918952 eV
 
CRYSTAL
PRIMVEC
0.031239 6.278197 6.309249 
6.396464 0.023610 6.316844 
4.277938 4.204086 0.002341 
PRIMCOORD
36 1
Li	      2.25541      8.42287      6.28353         0.062813      0.047454     -0.030972
Li	      2.14703      0.08783      2.18952        -0.021575      0.058689      0.018645
Li	      8.45413      4.24103      4.23567         0.018161     -0.022138      0.017539
Li	      2.16740      4.14664      2.15021         0.059849     -0.024113      0.039572
Li	      6.44131      6.21051      4.26708        -0.003115      0.010424      0.050653
Li	      4.29775      4.23199      4.22599        -0.034211      0.005788      0.037036
Li	      6.40863      4.29728      6.22832         0.002067      0.020487     -0.020217
Li	      4.31135      8.37566      4.22027         0.006114      0.006802      0.011919
Li	      4.31500      6.28735      6.27767        -0.008046     -0.003601     -0.024771
Sc	      6.41865      2.28065      4.22580        -0.022245     -0.011433      0.016536
Ti	      0.18421      2.04760      2.21626         0.411779     -0.135827      0.122944
Mn	     10.66087     10.46512     12.61518         0.014440     -0.009822      0.046134
Cr	      8.52753      6.27274      6.26999         0.041223     -0.009402     -0.089681
Cr	      2.16359      6.24534      4.19692        -0.011099     -0.004817      0.020705
Cr	      2.12951      4.18284      6.27030        -0.044844      0.032772      0.004904
Cr	      4.30456      4.22599      8.39570        -0.049934      0.080839     -0.006998
Cr	      6.40552      6.22849      8.40380        -0.037645     -0.027115      0.004431
Fe	      4.14328      2.09661      2.20145        -0.007890      0.045602     -0.011663
O	      2.00983      2.13222      2.10008        -0.430302     -0.029699      0.058261
O	      4.28062      4.36875      2.13434         0.024561      0.202602      0.044917
O	      4.30983      2.11552      4.24274         0.035822     -0.032601      0.118515
O	      6.44070      4.20385      4.23273        -0.001231      0.012408     -0.005961
O	      6.30738      2.02635      6.35389        -0.012394      0.027021      0.067584
O	      8.71100      4.28121      6.29997        -0.052800     -0.026078      0.005717
O	      2.14314      4.27318      4.31475        -0.040584     -0.022205     -0.060513
O	      4.19893      6.32483      4.08642        -0.005077      0.003063     -0.168221
O	      4.15710      4.10821      6.39408         0.021802      0.043335     -0.047872
O	      6.51637      6.35291      6.38540        -0.036063     -0.033895     -0.037216
O	      6.31768      4.16917      8.34946        -0.037950     -0.032584     -0.020846
O	      8.53584      6.35959      8.39244        -0.027828     -0.028987      0.001416
O	      1.99579      6.21662      6.19422         0.076170      0.012868      0.064006
O	      4.35052      8.47472      6.43440         0.043994     -0.035189     -0.114819
O	      4.42109      6.21202      8.37378        -0.000110     -0.058622     -0.002226
O	      6.49688      8.30152      8.38067         0.065754     -0.001395     -0.057970
O	      6.54576      6.30442     10.39740        -0.016024     -0.053162     -0.019024
O	      8.54216      8.31106     10.42959         0.016418     -0.007468     -0.032464
