# total energy = -247.12372902 eV
 
CRYSTAL
PRIMVEC
-0.002864 6.501801 6.204245 
6.309623 0.014651 6.185941 
4.210153 4.326335 0.006456 
PRIMCOORD
36 1
Li	      6.31327      6.60391     12.25516         0.019451      0.006705      0.034198
Li	      8.32125      2.21407      6.12342         0.038093     -0.002488      0.000119
Li	      8.43004      4.37717      4.33052         0.042092     -0.024744     -0.003693
Li	      6.24015      2.20027      4.34971        -0.041208      0.052888     -0.016645
Li	      6.44007      6.43959      4.23243         0.005328     -0.055559      0.019619
Li	      8.41648      6.39248      6.09543        -0.005470     -0.012009      0.050352
Li	      6.43083      4.30305      6.05921         0.001338     -0.014133      0.039781
Li	      1.98887      6.50372      4.25901         0.001070      0.060627      0.011460
Li	      2.07869      4.34229      6.13093        -0.031625     -0.001931     -0.002546
Sc	      4.20218      6.52598      6.07776        -0.032356      0.096514     -0.023690
Ti	      8.33505      8.59601      8.27129        -0.141685     -0.070946      0.258932
Mn	      6.32954      2.18366      8.16352         0.001799     -0.034758     -0.060321
Mn	      4.18396      2.16177      2.05478        -0.029868     -0.015973     -0.008240
Mn	      8.42976      4.32766      8.17374         0.060532     -0.024062     -0.106151
Cr	      6.29575      4.35230      2.08294        -0.036985     -0.003593     -0.005482
Cr	      4.22317      4.25440      4.21323        -0.052106     -0.013565     -0.055612
Cr	      6.34587      4.42563     10.35141        -0.016113     -0.004339      0.060495
Cr	      6.30683      6.52111      8.26301         0.023662      0.006547      0.065011
O	      2.04062      2.06326      2.05438        -0.055204     -0.043579     -0.001984
O	      4.22212      4.33544      2.17320        -0.001020      0.017256      0.009656
O	      4.20659      2.30231      4.11728         0.019155      0.025156      0.096536
O	      6.19710      4.32996      4.06751        -0.001001     -0.006686      0.024044
O	      6.31276      2.18306      6.33085        -0.019413      0.018544     -0.048008
O	      8.43238      4.33647      6.34539         0.014918     -0.014324      0.010595
O	      2.11065      4.34978      3.96262        -0.005928      0.011718      0.067246
O	      4.18670      6.52213      4.01580         0.021319     -0.017791      0.050391
O	      4.21011      4.39109      6.25738        -0.006249      0.002973      0.056035
O	      6.25154      6.53858      6.31801         0.028794     -0.001021     -0.089034
O	      6.32029      4.46513      8.30189        -0.034738      0.052965     -0.004597
O	      8.37324      6.63823      8.23637         0.011914      0.204163     -0.015165
O	      2.13921      6.46479      6.31743         0.010728     -0.022115     -0.057968
O	      4.24011      8.60743      6.14493        -0.041352     -0.035602     -0.059233
O	      4.18956      6.39238      8.25206         0.027560     -0.112599      0.017172
O	      6.42829      8.64856      8.31756         0.241394     -0.003095     -0.064449
O	      6.31072      6.39401     10.24930         0.003160     -0.022288     -0.031355
O	      8.55072      8.67134     10.15670        -0.019986      0.001145     -0.217468
