# total energy = -209.88595261 eV
 
CRYSTAL
PRIMVEC
0.035435 6.420735 6.272370 
6.194678 0.020632 6.285965 
4.122442 4.281552 0.022191 
PRIMCOORD
36 1
Li	      4.06888      2.22487      2.09866         0.088490      0.066752     -0.008622
Li	      4.21444      6.32465      2.20344        -0.125573      0.012992     -0.022149
Li	      2.15754      4.14829      2.22413         0.032667      0.040748      0.124605
Li	      4.11441      4.41062      4.10623        -0.063033      0.017153     -0.073333
Li	      4.15447      2.27616      6.27390        -0.013689      0.009550     -0.001239
Li	      6.14870      4.16103      6.27632        -0.032805     -0.042627     -0.015015
Li	      4.19268      8.38276      4.25832         0.089750      0.044464     -0.008664
Li	      2.26306      6.43458      4.18714         0.057068     -0.119982     -0.009916
Li	      4.13228      6.43072      6.19047         0.045299      0.006635      0.013147
Sc	      4.14381      4.35038      0.11098        -0.164669     -0.199610     -0.199151
Ti	      4.05419      0.08552      4.15055        -0.129339      0.422396      0.248346
V	      6.29996      6.24619      8.32040        -0.029859      0.015584      0.237528
Co	      2.11650      4.29161      6.22096        -0.216604     -0.051362     -0.447274
Cu	      2.14525      8.56917      6.29682        -0.024307     -0.166095     -0.137549
Cu	      8.23045      8.56348      8.39726         0.291910      0.017821     -0.009691
Ni	      6.14040      2.20646      4.19007        -0.341512      0.172813      0.068718
Ni	      2.04636      0.07720      2.05521         0.120313     -0.200098      0.124438
Ni	      2.03637      2.17508      4.11954        -0.441131     -0.233363     -0.259601
O	      4.29626      6.44240      4.18571        -0.584355     -0.261364     -0.007936
O	      2.07458      2.10701      2.05661         0.034879      0.174822      0.027400
O	      4.14892      4.29179      2.06723        -0.172860      0.010463      0.239753
O	      4.01951      2.01729      4.27030         0.475343     -0.266176      0.042676
O	      6.23803      4.37952      4.16236         0.133201     -0.657006      0.028879
O	      6.22357      2.14138      6.19857         0.066899      0.241255      0.306918
O	      8.27709      4.15684      6.14051        -0.132011      0.114748     -0.019797
O	      2.08454      4.06940      4.28726         0.300004      1.290008      0.425241
O	      3.97766      4.26445      6.41187         0.075345      0.100942      0.212998
O	      6.17336      6.48910      6.54267         0.020363     -0.001510      0.016862
O	      6.11366      4.47436      8.37610        -0.270474     -0.155679     -0.023743
O	      8.04529      6.32263      8.45317         0.109854     -0.006362      0.019864
O	      2.12104      6.45563      6.25329         0.418937      0.052771     -0.191596
O	      4.28018      8.63179      6.28411        -0.006649     -0.086486     -0.053199
O	      4.26886      6.53881      8.49437        -0.010547      0.081336     -0.104523
O	      6.27996      8.55963      8.41717         0.049358     -0.023191     -0.309778
O	      6.11288      6.53988     10.33214         0.081267     -0.152229     -0.077599
O	      8.23473      8.72769     10.42189         0.268468     -0.270112     -0.156998
