# total energy = -208.18406474 eV
 
CRYSTAL
PRIMVEC
0.053137 6.311762 6.264840 
6.270684 0.064388 6.253973 
4.218088 4.238241 0.005274 
PRIMCOORD
36 1
Li	     10.35986      4.29851      6.36497        -0.038135      0.000696      0.005055
Li	      4.32719      8.36975      8.23696         0.086872      0.010911      0.041228
Li	      8.34261      4.35905      4.24359        -0.042507      0.088483      0.047981
Li	      8.31911      4.23343      8.24531         0.005919     -0.002328     -0.025926
Li	      6.35178      6.35301      4.19437         0.103961      0.018444      0.031946
Li	      6.43079      4.29073      6.29314         0.038619     -0.001302     -0.000236
Li	      4.24305      8.37765      4.21416        -0.024631      0.001009      0.039926
Li	      6.22142      8.37878      6.34939        -0.008347      0.021794      0.000668
Li	      6.28015      6.45307      8.24925        -0.033760      0.106580      0.015530
Sc	      4.22378      4.29673      8.30945        -0.010182      0.017375      0.028980
Ti	      4.34884      4.22906      4.19127         0.205136     -0.508014      0.024439
V	      1.99592      6.20828      4.25901        -0.189414      0.084787      0.236893
Cu	      0.06394      2.12170      2.07065        -0.186186     -0.118796      0.041572
Cu	      8.36564      6.27358      6.24133        -0.190526     -0.038312      0.094486
Cu	      4.34576      6.43755      6.27376        -0.017817     -0.161951      0.054392
Ni	      8.39708      2.26808      6.25168         0.013929      0.051687     -0.164386
Ni	      2.16703      6.36522      8.31406         0.059002     -0.096699     -0.047897
Ni	      6.27475      2.16942      4.17837        -0.054741     -0.038678     -0.046120
O	      6.34305      6.37054      6.26368         0.264850     -0.059715     -0.006433
O	      4.20692      8.38790      6.24247         0.061224      0.069810      0.040889
O	      2.00604      2.08529      2.00550        -0.277135      0.124577      0.206013
O	      4.25728      4.41164      2.22333        -0.097334     -0.017989      0.097412
O	      4.18486      2.27185      4.24687        -0.073689      0.479758     -0.519789
O	      6.22683      4.26227      4.14760        -0.299206      0.087246      0.049534
O	      6.21129      2.12969      6.19921         0.051888     -0.009746      0.120628
O	      8.41958      4.30898      6.21255        -0.031943      0.064134      0.035482
O	      2.21836      4.43409      4.18343         0.026591     -0.069381     -0.021129
O	      4.16483      6.25394      4.29066         0.105621      0.089859     -0.025249
O	      4.19863      4.25701      6.18529         0.070616      0.041683     -0.042319
O	      6.30007      4.07009      8.37381         0.016177      0.144592      0.018772
O	      8.50027      6.39691      8.49573         0.344523      0.018351      0.161996
O	      2.21277      6.38662      6.10382        -0.203273     -0.120670     -0.152221
O	      4.24386      6.35840      8.26739         0.087362     -0.033669      0.031138
O	      6.35645      8.55122      8.40888         0.119508     -0.106589     -0.125423
O	      6.51687      6.36008     10.40724         0.049497     -0.085995     -0.094575
O	      8.40168      8.32454     10.43847         0.067531     -0.051941     -0.153255
