# total energy = -206.63388508 eV
 
CRYSTAL
PRIMVEC
0.025669 6.178150 6.497069 
6.165279 -0.007178 6.530712 
4.106352 4.136704 -0.002246 
PRIMCOORD
36 1
Li	      4.17604      4.12418      0.12178         0.034833      0.019400      0.025864
Li	      8.07963      2.10669      6.66849        -0.040419      0.021336      0.026131
Li	      6.07010      4.24281      2.24259         0.067153     -0.050259      0.033619
Li	      6.16358      2.18012      4.43128         0.018191     -0.044245     -0.004140
Li	      4.20814      6.08963      2.23114        -0.076065      0.088893      0.013212
Li	      2.07717      2.00957      4.16756        -0.040147      0.001981     -0.034674
Li	      4.18890      4.12448      4.15541         0.060998     -0.000270      0.019886
Li	      6.23402      4.03807      6.35161        -0.002259     -0.023850     -0.010652
Li	      2.03147      6.14701      4.41491        -0.023592     -0.004992     -0.022659
Sc	      4.09829      6.18581      6.36144         0.016661      0.017805      0.058909
Ti	      4.24779      1.95298      6.41286         0.599419     -0.070469     -0.045350
V	      8.16968      8.21859      8.75623        -0.051449      0.015967     -0.066772
Cu	      4.10060      2.10680      2.20706        -0.071944      0.001708     -0.089195
Cu	      2.09231      4.09453      2.22419         0.084653      0.035326     -0.061341
Cu	      0.03501      4.10257      4.31714        -0.146565     -0.086655      0.070528
Cu	      2.06204      4.15921      6.42194        -0.012498      0.014393     -0.010536
Cu	      6.18436      6.16783      8.71158        -0.141041     -0.051395      0.148287
Ni	      8.17891      4.15136      4.36994         0.056210     -0.084849     -0.086890
O	      6.06255      4.15558      8.74238        -0.274509     -0.111243     -0.223524
O	      6.27456      8.18788      8.77902         0.179963      0.152174      0.040304
O	      6.06181      6.08563     10.69764         0.103973     -0.005698      0.151821
O	      2.15184      2.16303      2.14301         0.039720     -0.261229     -0.090901
O	      4.04211      4.03754      2.20595         0.182044      0.048241     -0.031946
O	      4.13726      2.02121      4.53288        -0.061300      0.156605      0.276156
O	      6.28754      4.14724      4.32484        -0.301800      0.078294      0.116768
O	      6.07117      2.06182      6.57081        -0.418848     -0.052810     -0.042296
O	      8.19366      4.22202      6.53079         0.036576      0.000232      0.194831
O	      1.97808      4.13530      4.24960         0.117616     -0.027129     -0.282113
O	      4.12272      6.23762      4.35882         0.041304     -0.056715     -0.071532
O	      4.09545      4.06505      6.70962        -0.030789     -0.045136     -0.126608
O	      6.23425      6.28684      6.69635         0.016805      0.156888     -0.220077
O	      8.18391      6.22400      8.62006         0.210175      0.158940     -0.107777
O	      2.09521      6.12001      6.51146        -0.147180     -0.114069     -0.034689
O	      4.19136      8.26448      6.34278        -0.001904      0.116301      0.270864
O	      4.16188      6.14023      8.67442        -0.162126      0.027831     -0.103246
O	      8.25360      8.32872     10.64829         0.138139     -0.021302      0.319738
