# total energy = -207.64477863 eV
 
CRYSTAL
PRIMVEC
0.021214 6.239070 6.069552 
6.572017 0.024675 6.068536 
4.396629 4.172101 0.002942 
PRIMCOORD
36 1
Li	      8.82246      8.32868     12.09016         0.103267      0.038823      0.035962
Li	      2.30186      6.16922      8.05078         0.062885      0.031367      0.022039
Li	      6.77148      8.40676     10.06365         0.046575      0.019796     -0.033005
Li	      8.67428      4.16049      8.13116        -0.009858     -0.030608     -0.002214
Li	      6.55195      4.18717      6.14614        -0.068097      0.013282     -0.051835
Li	      2.24131      4.22318      6.10248        -0.010681     -0.013641     -0.000999
Li	      4.27982      6.09018      6.13734        -0.048008      0.015734      0.023870
Li	      8.69423      8.45252      8.12570        -0.082387      0.005881     -0.016317
Li	      6.52970      6.26982      8.06629        -0.005897      0.080267      0.027884
Sc	      4.59434      8.33381      8.02419         0.121057     -0.124595      0.013797
Ti	      8.74272      6.32414      6.24657        -0.185972      0.187644      0.336324
V	      6.56098      6.20388      4.01497         0.055120      0.134793     -0.044030
Cu	      4.42459      6.21497     10.07836         0.201849     -0.026650      0.035424
Cu	      6.60848      2.12229      8.04128         0.018243      0.082734     -0.103812
Cu	      4.36038      4.18437      4.04852        -0.010887      0.031035     -0.044034
Cu	     10.96600      8.33973     10.10158        -0.025470      0.045006      0.038529
Cu	      8.66597      6.34321     10.08084        -0.135995      0.203350      0.029979
Cu	      6.61241      6.29272     12.11470         0.016103     -0.049379      0.170794
O	      2.07868      6.29173      5.91841         0.085861      0.044535     -0.166336
O	      6.66181      6.17806     10.14289        -0.163261      0.178843     -0.392868
O	      8.92417      8.41887     10.10242        -0.164840     -0.252183      0.017318
O	      2.34645      2.09412      2.20765         0.001958     -0.024628      0.009432
O	      4.38643      4.27518      2.06259        -0.035444      0.175935      0.085088
O	      4.22732      2.12707      4.09075        -0.009349     -0.059021      0.032003
O	      6.58500      4.39190      4.08490        -0.001974     -0.334036     -0.009572
O	      6.39723      2.04624      6.05094        -0.050843      0.134698      0.193556
O	      8.89314      4.28891      5.92644        -0.042783      0.089173      0.125938
O	      2.09071      3.95115      4.08317         0.083028      0.079250     -0.053341
O	      4.57808      6.22714      4.08832         0.147959     -0.196884     -0.103544
O	      4.40836      4.05992      5.98694        -0.015615     -0.260361      0.274342
O	      6.79951      6.22248      5.96709         0.143408     -0.020940     -0.002188
O	      6.62490      4.03175      8.15120         0.024593     -0.180756      0.171883
O	      8.64764      6.23990      8.09897         0.008954      0.021284     -0.218080
O	      4.38147      8.42128      6.01127         0.007386     -0.164340     -0.140662
O	      4.41927      6.26934      8.17825         0.033720      0.042988     -0.189356
O	      6.54571      8.36823      8.13445        -0.094605      0.081606     -0.071970
