# total energy = -224.39069847 eV
 
CRYSTAL
PRIMVEC
0.049004 6.238967 6.422771 
6.230280 0.061172 6.412086 
4.175854 4.174905 0.017579 
PRIMCOORD
36 1
Li	      2.17768      2.07486      0.14393        -0.006313      0.019609      0.009514
Li	      2.05895      0.07481      2.11831        -0.005347      0.013911     -0.067913
Li	      4.13665      2.12628      2.11987        -0.011468      0.037103     -0.183189
Li	      8.22597      4.21463      8.49530         0.047007     -0.051121     -0.007652
Li	      6.23273      4.23188      6.58776        -0.023776      0.007134     -0.071951
Li	      6.27442      4.22574     10.52832         0.005997     -0.030503      0.071157
Li	      4.18587      6.34325      6.54955         0.031956      0.143502      0.019787
Li	      4.32407      4.18312      8.49797        -0.046700      0.009062     -0.010006
Li	      6.29040      6.12742      8.53599         0.006171      0.001722     -0.131937
Sc	      6.26502      8.37370      6.65990        -0.324190     -0.158176     -0.158670
Ti	      4.20223      6.16512     10.51659        -0.063407     -0.267387     -0.362402
Ti	      8.35769      6.34511     10.63283         0.178713      0.049490      0.119403
Fe	      2.03166      2.14724      4.19047        -0.197047      0.069717      0.458532
Fe	      4.22804      4.16169      4.18858        -0.001254      0.081277      0.290630
Co	      8.33983      6.24518      6.38782         0.116374     -0.173886     -0.055900
Co	      4.13686      4.16406      0.06321         0.070368      0.309415     -0.404993
Cu	      6.29183      2.23589      8.49767         0.077030     -0.030891     -0.103502
Ni	      6.27970      8.34334     10.57768         0.071371      0.072621      0.165086
O	      6.27336      4.14283      8.52889        -0.000359      0.076571      0.032351
O	      2.02689      2.13321      2.30919         0.032340      0.022933     -0.175941
O	      4.19385      4.33467      2.27470        -0.073678     -0.063413     -0.728041
O	      4.11609      2.06077      4.18776        -0.001810      0.027933      0.348748
O	      6.34310      4.22979      4.30962         0.025177      0.036123     -0.100112
O	      6.06576      1.96562      6.24797         0.187516     -0.173187     -0.037156
O	      8.42580      4.32195      6.30241         0.242292      0.373839      0.101742
O	      2.15638      4.25263      4.35809         0.058884      0.108528     -0.098640
O	      4.11912      6.19439      4.53608        -0.117588     -0.095889      0.058917
O	      4.20260      3.97380      6.27186         0.035805     -0.100433      0.042241
O	      6.39330      6.29347      6.30957        -0.279085      0.001086     -0.058863
O	      8.39057      6.31719      8.79567        -0.096401     -0.027909     -0.111748
O	      1.98920      6.29280      6.32448        -0.258924     -0.092407     -0.013029
O	      4.19092      8.50771      6.52349         0.241380     -0.114237      0.103405
O	      4.22637      6.25639      8.71862        -0.002045     -0.063234      0.423550
O	      6.32060      8.38178      8.59166         0.056414      0.019422      0.061600
O	      6.28384      6.27463     10.67539        -0.097688     -0.126739      0.694140
O	      8.35262      8.39368     10.74960         0.122285      0.088415     -0.119162
