# total energy = -219.27596677 eV
 
CRYSTAL
PRIMVEC
0.018388 6.222082 6.288191 
6.302742 -0.026925 6.333424 
4.191636 4.167942 -0.007453 
PRIMCOORD
36 1
Li	      4.20252     10.27901      6.35855         0.033434      0.022149     -0.020747
Li	      2.21373      2.13350      0.09125         0.063755      0.020875     -0.006025
Li	      2.02686      6.24005      8.24833        -0.027303      0.015594      0.006789
Li	      4.15827      2.18996      1.96088        -0.025265      0.076482      0.064915
Li	      2.19559      4.09270      1.96331         0.034751     -0.036268     -0.035794
Li	      4.13994      4.20343      4.15819         0.022185      0.001950     -0.060401
Li	      6.42512      4.11745      6.33677         0.034228      0.012824      0.003279
Li	      4.25038      8.30215      4.32396         0.028661     -0.027956      0.002007
Li	      4.08366      6.29584      6.28608         0.057088      0.004768      0.003562
Sc	      2.09520      2.12936      4.17356        -0.030956     -0.084297     -0.126599
Ti	      6.26302      2.18573      4.33953        -0.073422      0.270735      0.180408
Ti	      6.23767      6.13702      8.42185        -0.253160     -0.204608     -0.006532
Fe	      4.25913      6.08455      2.06545        -0.010664      0.290074     -0.134670
Fe	      8.37254      8.29390      8.37021         0.077371      0.080394      0.050649
Ni	      8.43327      4.11203      4.29301        -0.047770      0.004130     -0.078091
Ni	      2.16917      6.16300      4.26308         0.025318      0.044475     -0.044939
Ni	      6.25489      8.34826      6.29705         0.005190     -0.096770      0.062370
Ni	      8.39924      6.18782      6.32360         0.005968      0.071350      0.001624
O	      4.37551      8.30909      6.30014        -0.241187     -0.037496     -0.034871
O	      2.02209      2.08238      2.12083         0.108751     -0.004337     -0.021183
O	      4.18036      4.24953      2.05988         0.007865     -0.303037      0.023854
O	      4.28645      2.03141      4.23252         0.112953      0.093203     -0.040816
O	      6.31907      4.07707      4.23160        -0.060980     -0.279604      0.053405
O	      6.26522      2.09853      6.25273         0.097869     -0.012915     -0.153640
O	      8.40714      4.21399      6.25206         0.045206     -0.067508      0.143175
O	      2.13045      4.13222      4.25907        -0.024590     -0.046246     -0.135209
O	      4.22168      6.24910      4.06993         0.034819      0.023682      0.100305
O	      4.01441      4.07720      6.42451         0.123957      0.024781     -0.092229
O	      6.32252      6.31977      6.41331        -0.068996     -0.124786      0.069562
O	      6.22252      4.22020      8.36842         0.048578      0.167214      0.027438
O	      8.39346      6.26288      8.41901        -0.130672     -0.068641      0.059047
O	      2.13002      6.07385      6.25528        -0.065014      0.206656      0.090564
O	      4.33637      6.13933      8.47616         0.216411      0.073075     -0.041080
O	      6.34770      8.20244      8.51336        -0.068788     -0.052399      0.090514
O	      6.35190      6.30905     10.36985        -0.004011     -0.022196     -0.048862
O	      8.27519      8.27054     10.45450        -0.051579     -0.035348      0.048222
