# total energy = -231.07996847 eV
 
CRYSTAL
PRIMVEC
0.039915 6.154963 6.346305 
6.378994 0.009825 6.377187 
4.255863 4.127334 0.003135 
PRIMCOORD
36 1
Li	      4.31514     10.23236      6.36858         0.029315     -0.027346     -0.036906
Li	      2.11332      0.01003      2.11745        -0.034847      0.032917     -0.001876
Li	      4.23811      0.02206      4.25268         0.020751      0.018397     -0.001490
Li	      2.19472      4.09049      2.19175         0.036811     -0.038871      0.105761
Li	      6.34610      6.21689      4.24427        -0.032079      0.038936     -0.027411
Li	      0.12822      4.11445      4.25102         0.067283      0.039701     -0.002524
Li	      2.15944      6.12076      4.25738         0.055912     -0.041583     -0.015278
Li	      4.26269      6.20822      6.23503        -0.022907      0.003227     -0.111883
Li	      6.45049      6.15103      8.50555         0.039388     -0.015350      0.047278
Sc	      4.30812      6.04463      2.23477         0.127902      0.047725      0.360295
Ti	      6.38622      8.09287     10.52328        -0.140181     -0.566292     -0.058890
Ti	      4.34171      4.27988      8.54478         0.121305      0.390011      0.136909
Fe	      2.30256      8.11871      6.37333        -0.000841      0.119464     -0.122578
Fe	      8.46787      6.13573      6.41865         0.129274     -0.078926     -0.108392
Fe	      6.41778      4.19048      6.28176        -0.104795      0.055558      0.065133
Fe	      2.05881      4.20090      6.22656         0.015081     -0.015237     -0.190893
Co	      4.23059      4.15798      4.26193        -0.041296     -0.062753     -0.306522
Ni	      4.20744      2.06247      2.12276        -0.016297     -0.104775      0.078567
O	      2.13676      2.04876      1.98749        -0.110811      0.001714      0.048127
O	      4.24445      4.06391      2.12024         0.041309      0.062895     -0.045573
O	      4.36985      2.10628      4.30238         0.080960      0.077166      0.105067
O	      6.29083      4.04872      4.34346         0.002315      0.011293      0.031077
O	      6.40512      2.11672      6.28704        -0.090985     -0.033291      0.008397
O	      8.40069      4.12075      6.36277         0.047399     -0.035584     -0.081575
O	      2.18328      4.12491      4.32498         0.164115     -0.057359      0.111202
O	      4.29724      6.14694      4.22197        -0.037895     -0.059861     -0.145503
O	      4.22269      4.07271      6.50202         0.107972      0.063176      0.220262
O	      6.50216      6.19681      6.36157        -0.131157      0.049436      0.065309
O	      6.24370      4.11959      8.41258        -0.090629      0.019690     -0.054437
O	      8.59385      6.27651      8.38247        -0.121450     -0.016026      0.037076
O	      2.16320      6.17673      6.33310        -0.013797     -0.036898      0.033174
O	      4.29659      8.22277      6.39276         0.039523     -0.026997     -0.182612
O	      4.29476      6.11656      8.49419        -0.019192     -0.456962      0.073500
O	      6.49676      8.23184      8.56486         0.030569      0.007298      0.059818
O	      6.39242      6.27643     10.61273        -0.074120      0.599582     -0.038921
O	      8.41730      8.24815     10.52801        -0.073903      0.035924     -0.053688
