# total energy = -229.17875223 eV
 
CRYSTAL
PRIMVEC
0.083117 6.359948 6.190380 
6.408097 0.062836 6.210995 
4.296595 4.278257 0.016948 
PRIMCOORD
36 1
Li	     10.52570      4.22213      6.20387         0.019949     -0.074503      0.011543
Li	      8.65308      2.37880      6.18442         0.023460     -0.034727     -0.007598
Li	      4.33408      8.56077      8.18784         0.005570      0.012931      0.001213
Li	      8.56761      4.31144      4.35425        -0.008232     -0.022170     -0.032037
Li	      6.50627      6.39754      4.20053         0.072887     -0.018487     -0.010571
Li	      8.59859      6.26472      6.18838         0.016420     -0.000461      0.031477
Li	      6.60472      4.32152      6.18006        -0.016385     -0.002795     -0.007229
Li	     10.71928      8.62424     10.43297        -0.073703      0.061083     -0.037175
Li	      6.37263      8.51442      6.20491        -0.026542     -0.007830      0.027348
Sc	      6.47872      6.37349      8.23121        -0.023226      0.021579     -0.021701
Ti	      2.21068      6.42116      8.19066        -0.007132      0.075834     -0.052420
Ti	      4.27161      4.16880      4.26832         0.016584     -0.279726      0.308065
Fe	      6.44646      2.16748      4.28856        -0.030112      0.035403     -0.008355
Fe	      6.43450      2.26306      8.14798         0.019341     -0.012005      0.033734
Fe	      2.18375      6.40770      4.22167        -0.045465      0.005378      0.021841
Fe	      4.42251      6.58435      6.14254        -0.043807     -0.182238      0.010789
Cu	      8.60963      4.26088      8.18819        -0.033155     -0.017382      0.072410
Ni	      4.31665      4.28952      8.23393        -0.035124      0.071438     -0.066475
O	      2.06953      1.96498      2.10591         0.052257     -0.167223     -0.003976
O	      4.46166      4.35409      2.12876         0.157054     -0.024204      0.036067
O	      4.36555      2.29276      4.14679        -0.037434      0.227458      0.024309
O	      6.34348      4.22099      4.05086        -0.065522      0.067312     -0.051724
O	      6.40662      2.20024      6.23809        -0.028600      0.020123     -0.006626
O	      8.57396      4.31657      6.31117        -0.024186     -0.000267     -0.061290
O	      2.34294      4.32904      3.97928         0.104970     -0.006124      0.091966
O	      4.24090      6.30672      4.11045         0.054554     -0.026911     -0.112649
O	      4.30280      4.37341      6.11162         0.003406      0.029678     -0.427674
O	      6.37837      6.43353      6.22631         0.086109     -0.017423     -0.030252
O	      6.39695      4.27060      8.31637         0.037874      0.009923      0.012267
O	      8.63150      6.50862      8.33406         0.033566     -0.049375     -0.020547
O	      2.30056      6.32432      6.25392        -0.002800      0.006647      0.090222
O	      4.36875      8.44715      6.17691        -0.031206      0.167157      0.010922
O	      4.27885      6.36999      8.23297        -0.041422      0.141638      0.031384
O	      6.53019      8.59233      8.34317        -0.141019      0.037327      0.002884
O	      6.57252      6.49207     10.33849        -0.038757     -0.074089      0.013135
O	      8.53692      8.47243     10.33139         0.049830      0.027033      0.126720
