# total energy = -234.85794069 eV
 
CRYSTAL
PRIMVEC
-0.004934 6.338956 6.208767 
6.372793 0.013685 6.190694 
4.253126 4.218397 0.004247 
PRIMCOORD
36 1
Li	      0.08210      6.27640      6.08555         0.008387      0.013938      0.035061
Li	      6.45484      8.36509     10.36113        -0.047259     -0.022543      0.036012
Li	      6.34772      6.37132      4.23953        -0.053874      0.008770      0.017639
Li	      8.36435      6.36695      6.23553        -0.116114      0.062308      0.046236
Li	      4.19342      8.48895      4.26178         0.050323      0.003407     -0.103400
Li	      8.37160      6.41602     10.40436        -0.016427     -0.100784     -0.017385
Li	      6.19738      8.28388      6.19559         0.009166     -0.072442     -0.030735
Li	      4.36570      6.45016      6.17562         0.027429     -0.074156     -0.034057
Li	      6.35937      6.45637      8.22872         0.061223     -0.025005     -0.011321
Sc	      4.40496      6.38540     10.37591        -0.013302      0.192484     -0.035662
Ti	      2.15744      6.20594      8.10331        -0.074324     -0.399267     -0.164038
Ti	      8.44937      4.35407      8.29659        -0.274039      0.413891      0.143120
Ti	      4.25142      4.21938      4.26325        -0.063549      0.311679      0.211942
Cr	      6.39791      4.29912      6.19243        -0.202238      0.089053      0.235303
Co	      0.05003      2.10927      2.07473        -0.045307      0.142330      0.157700
Co	      8.45148      8.36491      8.30718         0.011591     -0.260058      0.148702
Cu	      2.17340      8.39307      6.14062        -0.195504     -0.060978     -0.104916
Cu	      4.21983      8.45709      8.19746         0.354482      0.018523      0.246612
O	      4.12726      8.43197      6.27776        -0.010929     -0.009845     -0.256620
O	      2.17587      2.16374      2.04998        -0.157828     -0.037500     -0.055507
O	      4.26955      4.35634      2.11616         0.095078     -0.238291     -0.090218
O	      4.26122      2.24238      4.00109         0.002490     -0.009205      0.064800
O	      6.27976      4.23984      4.14036         0.075438     -0.052352     -0.100485
O	      6.52560      2.23892      6.33175         0.161862     -0.004219     -0.227471
O	      8.42777      4.36166      6.28183         0.054450      0.044974      0.003285
O	      2.27637      4.20575      4.00606         0.085966     -0.064303     -0.078222
O	      4.26178      6.16432      3.99992         0.065742     -0.190881      0.125125
O	      4.34984      4.18574      6.15007         0.008009      0.010627     -0.115793
O	      6.34499      6.24284      6.23300        -0.042987      0.050074     -0.089162
O	      6.50337      4.14537      8.23512         0.401706      0.137855      0.079451
O	      8.52680      6.23905      8.26836         0.097477      0.064993      0.024970
O	      2.07146      6.23032      6.31707         0.001533     -0.016838      0.099019
O	      4.05884      6.25454      8.29681         0.028700     -0.190038     -0.059223
O	      6.33074      8.54720      8.24798        -0.317836      0.144187      0.042188
O	      6.32039      6.36852     10.30835         0.012241      0.011865      0.100814
O	      8.51276      8.50919     10.30353         0.018222      0.107747     -0.243764
