# total energy = -239.48933822 eV
 
CRYSTAL
PRIMVEC
-0.013344 6.235103 6.312081 
6.514714 -0.034477 6.333141 
4.317073 4.145560 0.002585 
PRIMCOORD
36 1
Li	      6.48205      0.08256      6.40302         0.008344     -0.079034      0.028950
Li	      8.58827      2.10026      6.34133         0.001707      0.018952      0.056248
Li	      4.33956      8.27076      8.28118        -0.019765      0.012293      0.039186
Li	      6.63477      2.06487      4.46584         0.083920     -0.014753     -0.073531
Li	      6.46962      2.07831      8.30899         0.025405     -0.018813      0.083037
Li	      8.49535      4.24216      8.30932        -0.007531     -0.020431     -0.012212
Li	      4.56687      1.97874      6.40789         0.010368      0.002378      0.014954
Li	     10.78121      8.27150     10.57294        -0.013883      0.012286      0.018072
Li	      6.62732      6.14942      8.41380        -0.004087      0.051673     -0.001144
Sc	      4.41851      4.06979      8.37187         0.037059      0.095949     -0.118480
Ti	      4.61058      6.17954     10.63638         0.264772     -0.013614      0.249861
Ti	      2.12412      2.08260      4.14530        -0.124149     -0.018307     -0.243166
Ti	      4.34337      4.07732      4.13515         0.098175      0.162486     -0.280880
Cr	      6.39304      8.24216      6.32029        -0.101082     -0.029972      0.096948
Fe	      2.16002      6.21018      8.32468        -0.104868      0.005922      0.083823
Co	      8.58719      6.24029     10.52029        -0.050802     -0.021530      0.079225
Co	      4.26996      6.26774      6.33600         0.177694     -0.056169     -0.090308
Cu	      6.61541      4.04235      6.45282        -0.004416      0.234843     -0.059724
O	      2.15838      1.96571      2.27049        -0.049759      0.084190      0.178442
O	      4.43493      4.07964      2.28590        -0.051189     -0.004561      0.230902
O	      4.13498      2.07166      4.26109        -0.040716     -0.036907     -0.022495
O	      6.33915      4.17854      4.24145        -0.024245     -0.058529     -0.081464
O	      6.54377      2.14646      6.36710        -0.026394     -0.220191     -0.001463
O	      8.75612      4.15524      6.16844         0.148481      0.044394     -0.341107
O	      2.25873      4.04898      4.24462         0.043512     -0.134584     -0.062765
O	      4.41448      6.06239      4.18553        -0.067832     -0.030034      0.087592
O	      4.13441      4.14394      6.22715        -0.133635      0.508826      0.006655
O	      6.37384      6.18684      6.17788        -0.251832      0.038765      0.082009
O	      6.44768      4.17078      8.39039        -0.023474     -0.021615      0.223065
O	      8.63514      6.21798      8.54358         0.030491     -0.067027     -0.034644
O	      2.13971      6.14375      6.30491         0.306569      0.172827     -0.130222
O	      4.43090      8.24087      6.29448        -0.062378     -0.612592     -0.099779
O	      4.16060      6.22963      8.61116         0.052830      0.026668     -0.038950
O	      6.51165      8.38208      8.29728         0.085108     -0.195837      0.035960
O	      6.42083      6.28027     10.52718        -0.254641     -0.000805      0.014084
O	      8.68088      8.40865     10.50773         0.042244      0.182856      0.083320
