# total energy = -234.25406504 eV
 
CRYSTAL
PRIMVEC
-0.031224 6.526152 6.177420 
6.338858 -0.026194 6.171641 
4.191065 4.311379 0.018466 
PRIMCOORD
36 1
Li	      4.26402     10.70897      6.24453         0.014123      0.017610      0.089851
Li	      2.14813      6.48895      8.11926        -0.059363      0.005846      0.015486
Li	      4.28206      8.52912      8.13128         0.015232      0.001468      0.014863
Li	      8.40143      4.30932      8.20755        -0.061100     -0.034160      0.029323
Li	      6.29936      4.31412      6.20825         0.028149     -0.033092      0.030859
Li	      6.26965      4.46576     10.37061         0.057837      0.027528     -0.099665
Li	      8.31028      6.56289     10.46525         0.080695      0.065857     -0.025785
Li	      4.05481      6.66247      6.35732         0.024774      0.042099     -0.124573
Li	      4.22815      4.46033      8.10022         0.020561      0.032264      0.001345
Sc	      6.37099      8.60246     10.13253         0.009158      0.057071     -0.012887
Ti	      6.22436      2.25954      8.18841        -0.097189      0.524447     -0.022020
Ti	      6.25414      6.42090      4.13196        -0.048273     -0.090150      0.101833
Ti	      4.11617      4.36649      4.11514         0.001931     -0.038125     -0.205959
Cr	      2.16281      8.66565      6.21404        -0.001586      0.039430     -0.000909
Fe	      8.37053      6.33357      6.20796         0.051396     -0.066142     -0.015345
Cu	      4.33011      6.38070     10.23383        -0.053923     -0.013368      0.051449
Cu	      6.21014      8.76349      6.26626        -0.047229      0.020173      0.009283
Cu	      6.30189      6.40421      8.20114         0.109412      0.009979     -0.055857
O	      1.99281      2.18620      2.16003        -0.047836     -0.014782      0.034254
O	      4.08292      4.49813      2.23869         0.010744      0.035123      0.270785
O	      4.14137      2.29207      4.10816        -0.046110      0.223344     -0.024476
O	      6.14454      4.42555      4.11574        -0.202243      0.080457      0.038566
O	      6.32253      2.15855      6.22417         0.006293      0.032246      0.131597
O	      8.44595      4.33214      6.05290         0.027223     -0.073075      0.003206
O	      2.14978      4.14210      4.25057         0.072115     -0.125496     -0.131773
O	      4.29354      6.37481      4.12012         0.053954     -0.205253     -0.055224
O	      4.13306      4.14739      6.07859        -0.009625      0.008331     -0.063621
O	      6.38828      6.32287      6.11544        -0.101057     -0.142608     -0.310001
O	      6.32790      4.07543      8.28284        -0.056832     -0.636894     -0.023501
O	      8.46852      6.41496      8.16997         0.209887     -0.033402      0.078517
O	      2.08818      6.72547      6.21400         0.049220      0.175555      0.034258
O	      4.14520      8.70878      6.21109        -0.047415     -0.010450      0.031099
O	      4.36011      6.46675      8.32076        -0.166575      0.032242     -0.075464
O	      6.29747      8.81242      8.18380         0.049259      0.168652      0.069008
O	      6.37679      6.57375     10.16638         0.131391     -0.007478      0.156712
O	      8.36824      8.64433     10.40138         0.023002     -0.075251      0.054764
