# total energy = -240.85927711 eV
 
CRYSTAL
PRIMVEC
0.007039 6.429053 6.299960 
6.114942 0.010497 6.296333 
4.093380 4.299988 -0.008941 
PRIMCOORD
36 1
Li	      8.14971      2.20940      6.29319        -0.068071      0.097658      0.019961
Li	      6.19150      4.32241      2.17577         0.015590     -0.035827      0.012841
Li	      8.09058      4.34103      4.25586        -0.034956      0.031748      0.067326
Li	      8.14846      4.28010      8.36204        -0.019262     -0.061763     -0.042680
Li	      6.15577      6.37987      4.18736         0.017232     -0.009074      0.071216
Li	      4.18065      4.22841      4.21009         0.031418     -0.080494      0.055227
Li	      8.18296      6.36791      6.22150        -0.051529     -0.072121     -0.083610
Li	      2.05873      6.43266      4.20256         0.005491     -0.031090      0.031528
Li	      4.10343      4.31097      8.39645         0.020163      0.037935     -0.050024
Sc	      2.16886      4.34717      6.26493         0.221480      0.022998     -0.067296
Ti	      4.12788      6.25333      2.03123         0.082981     -0.272148     -0.017085
Ti	     10.12344      8.56130     10.51402        -0.007863     -0.166845     -0.124559
Ti	      6.23898      6.37904      8.38588         0.051776     -0.057110     -0.262789
Cr	      6.16462      2.20682      4.21610        -0.098753      0.214263      0.138364
Fe	     10.13745      4.33145      6.25485        -0.100368      0.069479      0.019710
Fe	      3.96168      2.10794      2.19000        -0.017666      0.116785     -0.009781
Co	      6.19851      4.33731      6.21686        -0.120379     -0.060179      0.080614
Ni	      4.03822      6.43276      6.29078         0.020670     -0.018886     -0.100902
O	      1.96286      2.13495      2.11282        -0.254461     -0.011938     -0.022871
O	      4.06614      4.39378      2.14375         0.019846      0.320914      0.006147
O	      4.14647      2.18008      4.09382         0.060293     -0.042456      0.045810
O	      6.15455      4.15076      4.17952         0.049644     -0.073209      0.293311
O	      6.11677      2.18355      6.36063         0.036627      0.128183      0.083271
O	      8.19303      4.32113      6.30333        -0.532945     -0.032662     -0.092764
O	      1.85505      4.27961      4.26061        -0.210072      0.034789     -0.009644
O	      4.05588      6.59336      4.02580        -0.005759      0.218613     -0.065668
O	      4.15801      4.41028      6.28288         0.366645     -0.108306     -0.111358
O	      6.14005      6.49397      6.42201         0.058469      0.020403      0.118779
O	      6.10142      4.40157      8.49111         0.038041      0.077550      0.095879
O	      8.16595      6.46199      8.37091        -0.102253      0.019533      0.035787
O	      1.98073      6.37337      6.32079         0.068827     -0.078331     -0.019717
O	      4.06690      8.52565      6.25414         0.045313      0.087435     -0.068894
O	      4.19127      6.57593      8.32660         0.133354     -0.134291      0.171436
O	      6.10142      8.47402      8.46366         0.009060     -0.064667     -0.039393
O	      6.12251      6.41197     10.36670         0.032558     -0.054055     -0.159958
O	      8.20329      8.58916     10.49790         0.238859     -0.032832      0.001787
