# total energy = -241.90326453 eV
 
CRYSTAL
PRIMVEC
0.002534 6.214158 6.329649 
6.294076 -0.017321 6.349727 
4.183989 4.144063 0.000451 
PRIMCOORD
36 1
Li	      2.07968      2.07530      0.10274        -0.035175      0.036227      0.143431
Li	      2.20113      6.23027      8.35782         0.026231      0.009486      0.030563
Li	      4.16569      8.14780      8.42605        -0.013483     -0.147278      0.035434
Li	      4.21725      6.19254     10.52020        -0.007170      0.003260     -0.000907
Li	     10.40107      6.20400      8.40448        -0.015400      0.046364     -0.024934
Li	      8.37764      4.24009      8.36300        -0.020140      0.140702     -0.005403
Li	      8.38234      6.14302      6.47805         0.040867     -0.031062      0.005991
Li	      8.38610      6.20097     10.50375        -0.026662      0.011922     -0.061989
Li	      6.30737      6.21592      8.41035         0.019698     -0.030417     -0.037843
Sc	      6.29244      8.22692     10.51125        -0.043326      0.059971      0.125716
Ti	      6.22165      4.16778     10.50899        -0.127791      0.069139     -0.263033
Ti	      2.12894      2.05806      4.08341         0.108063     -0.149839     -0.442143
Ti	      4.16654      4.17709      4.07352         0.108206     -0.078982     -0.292863
Cr	      6.26683      8.27558      6.38699         0.013887     -0.009363      0.022389
Fe	     10.40343      4.17654      6.46760         0.126423      0.087661      0.080269
Fe	      6.39843      4.14024      6.45521         0.053345     -0.091904     -0.047274
Fe	      4.20667      4.08212      8.38468         0.078636      0.161414      0.037100
Ni	      4.12163      6.23314      6.42466        -0.044560      0.014005     -0.074573
O	      2.10414      2.06997      2.28443         0.005664     -0.049139      0.335222
O	      4.15316      4.17470      2.22600         0.012579      0.053693      0.247291
O	      4.16963      2.14691      4.20013        -0.059458      0.027259     -0.031445
O	      6.19933      4.15535      4.25941        -0.028010      0.081931     -0.110130
O	      6.33326      2.04453      6.27383         0.014447     -0.025881      0.006512
O	      8.50127      4.12005      6.39797        -0.062021     -0.018923      0.000426
O	      2.10200      4.11055      4.31933        -0.063959      0.035911      0.008983
O	      4.22828      6.23588      4.26868        -0.058742      0.037017     -0.075324
O	      4.11512      4.17201      6.24925        -0.064661     -0.146927      0.027638
O	      6.24111      6.21116      6.21912         0.065738      0.166746      0.040559
O	      6.32743      4.13295      8.62671        -0.024152      0.041392      0.256764
O	      8.39469      6.34397      8.45035         0.002054     -0.223422      0.002568
O	      1.99792      6.11964      6.36805        -0.017983     -0.042640      0.038305
O	      4.25930      8.30260      6.23385        -0.055420      0.020724      0.030059
O	      4.21434      6.07016      8.41918         0.021453      0.071703      0.082238
O	      6.31546      8.25420      8.41765        -0.047212     -0.018057     -0.020956
O	      6.29268      6.12222     10.65959         0.004073     -0.122832     -0.030834
O	      8.47551      8.26943     10.52946         0.113962      0.010140     -0.037810
