# total energy = -240.59053633 eV
 
CRYSTAL
PRIMVEC
0.012854 6.248601 6.502178 
6.294978 0.008722 6.506872 
4.164035 4.136055 0.038528 
PRIMCOORD
36 1
Li	      2.15732      8.30140      6.49356         0.001093      0.004375     -0.063350
Li	      4.24022      8.29160      8.66804        -0.007633      0.010181      0.037455
Li	      4.27212      6.21136     10.85644        -0.002129     -0.037189      0.005233
Li	      6.31444      2.15728      8.64844        -0.021933      0.044801     -0.000245
Li	      6.26162      6.18004      4.33019        -0.023500      0.079972     -0.031257
Li	      8.38095      6.26439     10.77843        -0.030525      0.013256     -0.013408
Li	      6.21778      8.32603      6.69875        -0.011147      0.025310     -0.017751
Li	      8.41611      8.31555      8.81344         0.090059     -0.028192      0.077604
Li	      6.24468      6.20809      8.74061        -0.011433     -0.028444      0.053282
Sc	      6.37734      8.27993     10.78292         0.234663     -0.145220     -0.004818
Ti	      2.25662      6.36060      8.64966         0.222848      0.171124     -0.142419
Ti	      4.04146      4.16699      4.24879        -0.330957      0.155375     -0.079142
Ti	      8.25417      6.23603      6.68173        -0.096525     -0.006695      0.535822
Mn	      4.21582     10.32835      6.54749        -0.032721     -0.010739     -0.085973
Cr	      4.21135      6.23661      6.50713         0.002468      0.149796     -0.008296
Co	     10.37899      8.32781     10.81918         0.787909     -0.165586      0.268063
Cu	      6.28155      4.13451      6.56894         0.097068     -0.019462      0.167365
Ni	      2.05044      4.07746      2.19185        -0.118792      0.015067      0.021832
O	      2.12220      2.00788      2.13716         0.038924     -0.324723      0.022754
O	      4.18467      4.16738      2.28669         0.138966     -0.021077      0.080729
O	      4.19913      2.21408      4.50183        -0.028649      0.105900      0.006834
O	      6.17690      4.15824      4.16221        -0.040445      0.030562     -0.074733
O	      6.14894      2.14010      6.48007        -0.043805     -0.192484      0.029625
O	      8.32196      4.25293      6.58438         0.094847      0.000123     -0.059321
O	      2.17752      4.14706      4.25927         0.095133     -0.028614      0.069455
O	      4.16136      6.11651      4.50613         0.059233     -0.226154     -0.027001
O	      4.21441      4.13961      6.39053        -0.087711     -0.032680     -0.058124
O	      6.28601      6.14417      6.56387         0.119323      0.177339     -0.030518
O	      6.33993      4.12601      8.93191        -0.471694      0.123345     -0.027939
O	      8.35047      6.24318      8.52375        -0.038243      0.022567     -0.499884
O	      2.17871      6.23782      6.66985        -0.013043     -0.027921      0.123817
O	      4.24470      8.22304      6.31720        -0.296773     -0.026317     -0.130339
O	      4.14901      6.28109      8.55004        -0.257654      0.037791     -0.039562
O	      6.26472      8.46705      8.74972        -0.030758      0.079942     -0.037083
O	      6.29378      6.23204     10.88971        -0.033513      0.119162      0.072766
O	      8.39084      8.32845     10.89077         0.047052     -0.044491     -0.141475
