# total energy = -247.08356594 eV
 
CRYSTAL
PRIMVEC
-0.000092 6.195970 6.810434 
6.224762 -0.008700 6.821780 
4.137130 4.123451 0.006165 
PRIMCOORD
36 1
Li	      4.17455     10.26301      6.89561        -0.018132      0.036039      0.057346
Li	      6.19075      4.04143      2.34969         0.005639      0.016479      0.033141
Li	      6.21344      8.24722     11.26860        -0.024064     -0.017150     -0.064767
Li	      2.11484      4.11212      2.45854        -0.017178     -0.016232      0.054288
Li	      2.07305      2.13371      4.45622        -0.034477      0.005629     -0.045161
Li	      4.14797      8.21873      4.66158         0.022828     -0.006396     -0.006825
Li	      6.10491      8.24307      6.83918         0.025668     -0.003253     -0.002534
Li	      4.16860      6.22073      6.67040         0.043603      0.000910     -0.062711
Li	      4.08278      4.16166      9.03309         0.026378     -0.004752      0.012101
Sc	      2.13918      8.25614      6.80585        -0.058401     -0.059348      0.045410
Ti	      8.17674      4.12849      4.46301        -0.316180      0.158110      0.022230
Ti	      2.08961      6.05608      4.63701         0.118933     -0.303444      0.079224
Ti	      6.29839      6.15424      9.16344         0.194487     -0.102722     -0.098076
Mn	      4.15652      8.28439      9.00588        -0.048098      0.045397     -0.004817
Mn	      0.04640      2.08519      2.34051        -0.055553      0.014226     -0.031579
Mn	      6.18547      4.15883      6.86861        -0.029394      0.000049     -0.073037
Fe	      4.15643      4.07726      4.53228         0.071487     -0.045454      0.028413
Cu	      4.15396      2.08452      6.74458        -0.014507      0.034993      0.064660
O	      2.18299      2.07913      2.14135         0.040680     -0.018611      0.004876
O	      4.16428      4.09441      2.40019         0.025948     -0.028453     -0.098189
O	      4.17497      1.92787      4.45232        -0.051403     -0.271850     -0.144563
O	      6.31634      4.12608      4.49162         0.455601     -0.035003      0.044779
O	      6.17389      2.19442      6.96957         0.168926     -0.008843     -0.051698
O	      8.22421      4.19421      6.57808         0.000114     -0.127955     -0.004128
O	      2.01673      4.19521      4.55513        -0.006238      0.382822      0.049206
O	      4.01734      6.22317      4.51387        -0.210137      0.072429      0.003569
O	      4.24580      4.06020      6.66185         0.064692      0.134652      0.106452
O	      6.26889      6.08617      7.06933        -0.117923      0.009415      0.024237
O	      6.24753      4.23328      9.05719         0.009437      0.167725     -0.069840
O	      8.21064      6.25694      9.37768        -0.240607     -0.019168      0.219377
O	      1.99618      6.21833      6.53013         0.051356     -0.005860     -0.189847
O	      4.11521      8.23175      6.87583        -0.039389      0.049229      0.050947
O	      4.23004      6.17095      9.29441         0.040692      0.010989      0.114532
O	      6.12806      8.12923      9.01163        -0.029501     -0.079614      0.012432
O	      6.24386      6.19435     11.17234        -0.047783     -0.047139     -0.072245
O	      8.27602      8.33427     11.49240        -0.007504      0.062156     -0.007204
