# total energy = -249.64873683 eV
 
CRYSTAL
PRIMVEC
0.086558 6.308124 6.417601 
6.354611 0.030149 6.473303 
4.248215 4.253320 0.008795 
PRIMCOORD
36 1
Li	      6.45581      6.31974     12.84514         0.035512      0.038217     -0.013644
Li	      2.34771      8.40141      6.47884         0.105837     -0.020082      0.040214
Li	      2.22349      6.31800      8.53100         0.019133      0.017576      0.011788
Li	      4.37002      8.40040      8.46512        -0.010606     -0.024441     -0.014146
Li	      6.44467      8.45532     10.73440         0.037534     -0.012757      0.063487
Li	      6.33991      4.23084      6.48955        -0.014602     -0.000382     -0.048552
Li	      4.34390      8.48673      4.42002         0.080665      0.011093      0.055946
Li	      4.29917      6.44975      6.52949         0.018140      0.012338      0.049019
Li	      4.25521      4.24915      8.55641        -0.050260      0.004959      0.007669
Sc	      8.44951      4.24428      8.52638         0.127843     -0.094512     -0.050923
Ti	      4.50383      6.17974     10.64187         0.135761      0.006860     -0.387707
Ti	      4.40995      4.10911      4.24780         0.275720     -0.124829     -0.247479
Ti	      2.23482      6.45916      4.38935        -0.014149      0.103405      0.389085
Mn	      6.39821      2.19675      8.49491         0.060825      0.016983     -0.102845
Mn	      6.34982      8.48537      6.54217        -0.219112      0.059658     -0.037649
Mn	      6.35060      6.35251      4.30790        -0.003908     -0.083301     -0.029927
Mn	      4.26124      2.11026      6.43370         0.024453     -0.020827      0.054637
Co	      6.37715      6.35960      8.56448        -0.016713     -0.015141      0.149839
O	      2.13535      2.18165      2.15174        -0.069554      0.213328     -0.020952
O	      4.25068      4.25132      2.36678        -0.133531     -0.036162      0.109173
O	      4.26764      2.15396      4.25757         0.008744      0.023340     -0.071178
O	      6.29316      4.21853      4.31407        -0.166280     -0.071020      0.038767
O	      6.14898      2.14610      6.44674         0.027876      0.059597      0.042439
O	      8.51488      4.36177      6.36362        -0.069445     -0.062439      0.031199
O	      2.23174      4.35187      4.29993        -0.027363      0.026419      0.004802
O	      4.14656      6.22814      4.33371        -0.031371      0.069876      0.057888
O	      4.13512      4.12219      6.28304        -0.045933      0.085023      0.095909
O	      6.53639      6.31319      6.45420        -0.132333     -0.061246     -0.095939
O	      6.43299      4.34904      8.62093        -0.120597      0.141081     -0.026943
O	      8.51096      6.37656      8.81772        -0.030063     -0.016496     -0.045239
O	      2.15676      6.39922      6.24103         0.058771     -0.055329     -0.284716
O	      4.46666      8.44670      6.44702         0.173065     -0.013194      0.017691
O	      4.25071      6.29972      8.81718         0.044130     -0.094660      0.316479
O	      6.43050      8.33375      8.46476         0.006339     -0.167573     -0.005009
O	      6.38908      6.35350     10.75210        -0.157984     -0.076201     -0.025337
O	      8.58309      8.49773     10.80353         0.073458      0.160842     -0.027845
