# total energy = -211.45547322 eV
 
CRYSTAL
PRIMVEC
-0.016088 6.524655 6.081921 
6.185152 0.003850 6.061492 
4.150379 4.363217 -0.024944 
PRIMCOORD
36 1
Li	     10.26859      4.37188      6.01171         0.021082      0.003258      0.057714
Li	      8.24720      2.31718      6.00882         0.023034      0.024942     -0.006121
Li	      8.13494      4.54409      8.00646        -0.054498      0.022142     -0.005194
Li	      2.18815      2.20683      4.11867         0.057786     -0.000504      0.033529
Li	      4.15968      4.18701      4.13507        -0.045144     -0.020202      0.054021
Li	      8.15612      6.50219      6.02617         0.025814     -0.017354      0.006115
Li	      6.26816      4.44376      5.94400        -0.057470      0.016561      0.109230
Li	      6.23339      8.61118      6.02474        -0.042811     -0.025066     -0.048985
Li	      6.32849      6.39183      8.01629        -0.037176     -0.121956     -0.026102
Sc	      6.20112      2.11487      7.97894         0.146669      0.345406     -0.326717
Sc	      4.24911      6.49802      6.05209         0.123293      0.068567      0.211029
Cr	      8.24712      8.64232      8.03411        -0.061246     -0.035409      0.257073
Co	      2.07457      6.53961      8.09230         0.081436     -0.040634     -0.088711
Co	      4.11911      2.34524      1.96439         0.268000      0.182513      0.012695
Co	      4.11270      8.72182      4.10148         0.108592     -0.040613     -0.702105
Cu	      8.28520      4.38867      4.06902        -0.036918      0.069810     -0.121670
Ni	      6.17205      2.25981      4.10146         0.015026      0.083968      0.113793
Ni	      1.99139      6.48673      4.11242        -0.070945      0.103659     -0.069441
O	      8.25318      4.39545      5.91180         0.007380     -0.008402      0.076318
O	      2.19808      1.94289      2.04709         0.092265      0.023633     -0.066259
O	      4.30796      4.39129      2.03964        -0.136013     -0.644932      0.049480
O	      4.19131      2.26429      3.79032        -0.193967      0.082925     -0.035481
O	      6.37341      4.31714      3.90759        -0.101409      0.121524     -0.329472
O	      6.19913      2.19482      6.02732         0.035055     -0.030406      0.327635
O	      1.79601      4.48850      4.01796        -0.324098     -0.147001      0.153963
O	      4.10118      6.72821      4.03871         0.002580      0.384275     -0.126378
O	      4.13046      4.41912      6.10986        -0.027364      0.042925     -0.092880
O	      6.19246      6.54357      6.07703         0.050493      0.033377     -0.022874
O	      6.07350      4.30157      8.27433         0.252092     -0.166882     -0.206773
O	      8.27269      6.62230      8.10659        -0.062342      0.023191      0.093067
O	      2.05544      6.49361      6.23442        -0.009174     -0.032231      0.362938
O	      4.08320      8.65485      6.06372         0.081382     -0.098470      0.618855
O	      4.02463      6.38983      8.20993        -0.085751      0.185752      0.061837
O	      6.16285      8.95302      8.14551        -0.298093      0.192983     -0.300550
O	      6.03116      6.34135     10.11825        -0.034748     -0.509937      0.041718
O	      8.30908      8.53550     10.07445         0.287187     -0.071414     -0.065293
