# total energy = -212.43324944 eV
 
CRYSTAL
PRIMVEC
-0.036831 6.322765 6.147281 
6.291121 -0.039301 6.150283 
4.170580 4.193853 -0.002804 
PRIMCOORD
36 1
Li	      6.26964     10.47076      8.23584        -0.120301      0.046634     -0.017881
Li	      4.14008      2.11714      2.12537        -0.027467      0.119751     -0.030324
Li	      8.32685      4.17815      4.14235         0.079752     -0.088046      0.004137
Li	      6.23107      2.16176      4.11694        -0.035342      0.063265      0.041342
Li	     10.34571      6.28289      8.14583         0.046195     -0.084241     -0.079285
Li	      2.13064      4.20553      1.99709         0.087390     -0.044781     -0.022810
Li	      4.32734      1.97228      6.13737         0.046985     -0.026313     -0.000742
Li	      6.28601      4.09784      6.13802         0.021538     -0.041722      0.002087
Li	      8.37318      6.28650     10.20812        -0.047059      0.018532      0.046681
Sc	      2.03344      2.11676      0.10250        -0.084760     -0.073280      0.029822
Sc	      6.30918      6.30623      8.23256        -0.057764      0.014533      0.008135
Cr	      4.16461      8.35884      4.06493        -0.014530      0.132551      0.109893
Co	     10.38517      4.25343      6.24672         0.010529     -0.175027     -0.875626
Co	      4.17942      4.19136      4.04063        -0.065037     -0.081741     -0.207798
Co	      4.13998      6.28010      6.15127         0.009751      0.099352      0.169976
Cu	      2.11902      2.05893      4.04785        -0.014291     -0.057371      0.025518
Cu	      2.07088      4.24346      6.16311        -0.130474      0.010958      0.031557
Cu	      8.33867      8.37874      8.21068         0.017344      0.031635      0.085791
O	      6.04090      4.27011      4.12173         0.015110     -0.089981     -0.034308
O	      2.14048      4.12273      4.13345        -0.026837      0.088255     -0.062343
O	      4.05615      4.37461      6.14074         0.187766      0.082800      0.029121
O	      2.08808      2.09829      2.10136         0.034142     -0.001261     -0.081248
O	      4.17412      4.18078      1.91597        -0.197109      0.159022      0.382470
O	      4.09704      2.29767      4.11141         0.100858      0.145710     -0.005596
O	      6.32611      2.01181      6.08350         0.067666      0.107567      0.090920
O	      8.41543      4.13284      6.12788         0.109535     -0.139131      0.113131
O	      4.21662      6.23925      4.19960        -0.091758      0.035918      0.039737
O	      6.07311      6.36442      6.09609        -0.001306     -0.137565      0.083365
O	      6.19925      4.19345      8.25226         0.120209      0.008684     -0.042971
O	      8.32760      6.37731      8.15616        -0.001009     -0.084403      0.022081
O	      2.16775      6.25087      6.12724         0.040140      0.117578     -0.014508
O	      4.21335      8.26999      6.08443        -0.082926     -0.202577      0.033860
O	      4.17211      6.22505      8.09438         0.028536      0.090484     -0.053502
O	      6.31827      8.39136      8.16878        -0.047790     -0.030839      0.138841
O	      6.29571      6.12297     10.35632        -0.014015      0.019208      0.035262
O	      8.48420      8.35273     10.22842         0.036328     -0.034159      0.005218
