# total energy = -213.99831909 eV
 
CRYSTAL
PRIMVEC
-0.005396 6.339928 6.241835 
6.282598 -0.026640 6.262691 
4.153676 4.205196 0.017403 
PRIMCOORD
36 1
Li	      6.27458      6.30972     12.31299        -0.040055      0.118689     -0.012054
Li	      6.28493     10.40219      8.37788         0.006851      0.096352      0.097228
Li	      4.19090      2.16681      2.09861        -0.097498     -0.018694      0.053459
Li	      8.40967     10.44271     10.54274        -0.022258     -0.016847     -0.012246
Li	      6.31907      2.03629      4.31797         0.038035      0.002057      0.160081
Li	      4.24527      2.01979      6.14884         0.035092     -0.030517      0.061642
Li	      6.37224      4.09074      6.16533         0.053023     -0.132579      0.045795
Li	     10.27868      8.60880     10.51867        -0.084210      0.046256     -0.059931
Li	      8.19299      6.44903     10.52328        -0.046343      0.137874     -0.062566
Sc	      6.29089      2.08629      8.31730         0.009295      0.065758     -0.654063
Sc	      6.23332      6.35607      8.44713        -0.077590     -0.362264     -0.015282
Cr	      2.09829      4.21724      2.07607        -0.193686      0.024814     -0.355898
Fe	      4.07578      6.37560      6.27190         0.335394     -0.201604      0.069308
Co	      4.16673      4.15742      4.19325         0.579179     -0.162296      0.547216
Co	      2.07077      4.25727      6.20284        -0.484896      0.160972      0.411953
Cu	      6.28910      6.25591      4.19996         0.302320     -0.278170     -0.318738
Ni	      8.35689      8.46107     12.42975         0.647990      0.010349      0.349792
Ni	      8.30751      8.41911      8.41146         0.263935     -0.031881      0.265403
O	      8.33241      8.44576     10.50150         0.073808     -0.180880     -0.935455
O	      2.10066      2.20298      2.04407         0.093495      0.096063      0.513384
O	      4.08632      4.22109      2.28953         0.054403     -0.072660     -0.175654
O	      4.11798      2.28106      4.20842        -0.065948      0.321632     -0.251375
O	      6.06083      4.26341      4.22221        -0.359275     -0.015760     -0.228974
O	      6.48328      2.05194      6.27563        -1.321595     -0.071013      0.585729
O	      8.37910      4.12399      6.39074         0.184128      0.398397      0.185137
O	      2.24271      4.14377      4.20777         0.013141      0.046887     -0.149168
O	      4.24755      6.10992      4.21543        -0.063316     -0.132571      0.131574
O	      4.02885      4.24794      6.17132         0.276359      0.205276     -0.132340
O	      6.18111      6.49510      6.20007        -0.216543      0.150626      0.093127
O	      6.31028      4.19004      8.36846         0.205252      0.047582      0.052694
O	      8.37044      6.25757      8.32343        -0.058517     -0.164437      0.056886
O	      2.13444      6.22420      6.21825        -0.386688     -0.438463     -0.053969
O	      4.15268      8.34321      6.21078         0.512490      0.188286     -0.035801
O	      4.18190      6.22682      8.25056        -0.056912      0.188763     -0.090189
O	      6.29146      8.41573      8.14468        -0.147611     -0.016316     -0.210473
O	      6.23282      6.36535     10.37182         0.038754      0.020319      0.073769
