# total energy = -241.23875998 eV
 
CRYSTAL
PRIMVEC
0.017829 6.563765 6.218621 
6.323744 0.004857 6.231196 
4.219990 4.388128 -0.000748 
PRIMCOORD
36 1
Li	      6.30522      6.58613     12.33967        -0.026033      0.011626     -0.031782
Li	      4.18486      2.26819      2.18700         0.041680      0.051817      0.006622
Li	      4.30766      0.07977      4.19598        -0.047503     -0.041005      0.006404
Li	      6.14779      2.10727      4.20223         0.009528      0.012227     -0.017883
Li	      2.13810      4.30049      2.05473        -0.030726     -0.063826      0.007943
Li	      2.22588      2.25286      4.16205        -0.009708      0.018625      0.047419
Li	      8.35481      6.56006      6.13780        -0.065909      0.079768      0.007350
Li	      2.03357      6.52353      4.20911         0.025224     -0.007501     -0.023492
Li	      6.28092      8.69257      6.23952        -0.052796      0.028886     -0.012750
Sc	      6.36400      4.35003      2.17900         0.015895     -0.006424      0.054126
Sc	     10.44893      6.49520      8.29308        -0.043002      0.010326      0.020397
Mn	      8.45139      8.73283     12.40928         0.044829      0.023032     -0.016087
Mn	      4.09911      4.32024      4.19695         0.083539     -0.011766     -0.009799
Mn	      6.42396      4.37701      6.14676        -0.006941      0.003833      0.047910
Mn	      6.42595      4.48247     10.37624         0.041677     -0.078309     -0.039190
Mn	      8.41617      8.74717      8.35631        -0.006370     -0.007837      0.001307
Mn	      6.36145      6.67848      8.30974        -0.000545     -0.027144     -0.080510
Fe	      4.27186      6.62569      6.17263         0.009874     -0.047167      0.033247
O	      2.03647      2.10293      1.96268         0.048638      0.007156      0.057756
O	      4.23582      4.41757      2.19985        -0.024393      0.004624     -0.069834
O	      4.18217      2.44295      4.21278        -0.012459     -0.000600     -0.014468
O	      6.41004      4.45032      4.22748         0.023866      0.057137      0.019602
O	      6.48424      2.10162      6.21009         0.020666      0.010167     -0.027733
O	      8.34800      4.13416      6.20150         0.063371     -0.018802      0.034084
O	      1.99380      4.39669      4.20918        -0.048351      0.008040     -0.058121
O	      4.21465      6.42438      4.18198        -0.006416      0.014010     -0.113133
O	      4.38298      4.51911      6.18064         0.022575     -0.069649     -0.071577
O	      6.26464      6.62112      6.35882         0.117840      0.003618      0.002463
O	      6.31679      4.28237      8.22073         0.055719     -0.022697      0.017794
O	      8.37014      6.57756      8.20400         0.016791     -0.007030     -0.001084
O	      2.23612      6.74834      6.25915        -0.116477     -0.015482     -0.021010
O	      4.10877      8.69183      6.16397         0.021155      0.043649     -0.016635
O	      4.31669      6.59859      8.24063        -0.034984      0.016388      0.048876
O	      6.37871      8.86218      8.27281        -0.082626      0.033207      0.016027
O	      6.34984      6.56232     10.21341        -0.022022     -0.011413      0.093878
O	      8.65254      8.74265     10.40767        -0.025609     -0.001482      0.101882
