# total energy = -227.49582945 eV
 
CRYSTAL
PRIMVEC
0.048569 6.047360 6.359084 
6.553266 -0.001863 6.406806 
4.363099 4.058048 0.004142 
PRIMCOORD
36 1
Li	      2.30469      6.10444      8.44230         0.060881      0.027671      0.032350
Li	      4.35923      8.04097      8.41726        -0.000874      0.058917     -0.023980
Li	      6.56930      8.00896     10.64836         0.005649      0.070016     -0.042619
Li	      6.61519      6.08218      4.39925        -0.026035     -0.023549      0.036010
Li	      8.54605      6.12774      6.35164        -0.092682     -0.012326     -0.011148
Li	      2.24877      6.04447      4.38873        -0.002358     -0.016400     -0.011150
Li	      6.60097      8.03652      6.43191         0.020152      0.003755     -0.005795
Li	      4.41524      6.10614      6.50476         0.084060     -0.044683      0.051304
Li	      6.44800      6.09242      8.45880         0.001842      0.021746     -0.044961
Sc	      6.55960      4.14059      6.38194        -0.145640      0.210355     -0.195462
Sc	      4.39815      8.05264      4.27622         0.163531     -0.019105      0.028319
Mn	      4.41439      4.01956      4.29384         0.029189     -0.210681      0.039144
V	      8.81645      4.12165      8.54212        -0.065750     -0.063465      0.101069
V	      8.51305      8.04867      8.50021         0.031744      0.065086     -0.109597
Fe	      4.37852      0.11701      4.19212        -0.242292      0.046073      0.059365
Co	      2.26528      8.06900      6.36059         0.129627     -0.261102     -0.007073
Cu	      0.19617      6.05233      6.32567        -0.021392     -0.139508     -0.061482
Cu	      0.09024      1.95303      2.12572        -0.049395      0.004031      0.122890
O	      2.29085      2.22542      1.89799         0.110360      0.080491      0.035704
O	      4.21363      4.06818      2.26653         0.135891     -0.089781     -0.046747
O	      4.40184      2.07764      4.27269         0.004867      0.009918     -0.007086
O	      6.64724      4.05441      4.31869         0.086029     -0.044137      0.006679
O	      6.83715      1.93659      6.50549         0.088495      0.035307     -0.065290
O	      8.74453      4.00774      6.41132        -0.017154     -0.034925     -0.071226
O	      2.16228      4.02317      4.06142        -0.114670      0.044299      0.058665
O	      4.38454      5.95384      4.17290        -0.046452      0.098827      0.114081
O	      4.45244      4.01394      6.50768         0.067586     -0.020961      0.026211
O	      6.54214      6.09207      6.39524        -0.037284     -0.200534      0.063812
O	      6.60788      3.94801      8.52423         0.070582      0.165245     -0.030192
O	      8.67197      5.97807      8.45531        -0.189445      0.013056      0.021590
O	      2.19767      6.15495      6.39935         0.126375      0.195117     -0.026534
O	      4.26129      8.13889      6.33252        -0.068452     -0.002274      0.083564
O	      4.39057      5.92480      8.58132        -0.012869     -0.057553     -0.121351
O	      6.79783      8.06610      8.49684        -0.174557      0.028119      0.019229
O	      6.38138      6.03212     10.56942         0.165469      0.048347     -0.055365
O	      8.81647      8.07700     10.55679        -0.075030      0.014607      0.037073
