# total energy = -230.43092886 eV
 
CRYSTAL
PRIMVEC
0.084075 6.411727 6.205093 
6.408346 0.098525 6.190294 
4.320956 4.313128 0.016465 
PRIMCOORD
36 1
Li	      4.24172      4.16537      0.10915        -0.047085      0.035454      0.008730
Li	      2.40638      8.62765      6.28000        -0.032861      0.016443     -0.007328
Li	      8.55913      4.39140      8.21456        -0.014763     -0.048317      0.052886
Li	      8.57370      6.46061      6.41820         0.048997     -0.005459      0.035427
Li	      4.41729      8.54850      4.20059         0.018352     -0.021231     -0.062208
Li	      6.35343      8.53065      6.25629         0.048052     -0.049804     -0.030448
Li	      4.44116      6.64592      6.27341         0.027332     -0.030835     -0.026093
Li	      4.34810      4.31031      8.21595         0.008193     -0.010475     -0.040386
Li	      6.53974      6.52749      8.15436         0.066425      0.044189      0.029579
Sc	      8.76528     10.69532     10.35157        -0.013668      0.053185      0.000805
Sc	      6.44512      2.20970      4.22604        -0.072501     -0.005922      0.046922
Mn	      2.21937      6.46473      8.12617        -0.129724      0.052030      0.063869
V	      4.24283      4.33134      4.22780         0.135919      0.025599     -0.120555
V	      2.20116      6.42922      4.16189         0.087690     -0.034717     -0.229056
Fe	      6.55492      4.42263      6.37161        -0.096386     -0.063885     -0.129200
Co	      6.41825      2.23974      8.24165         0.014174      0.007428     -0.003637
Co	      6.43715      6.51855      4.20745         0.090643     -0.084913      0.000793
Cu	      4.43928      8.55412      8.12208         0.013265      0.006644      0.181265
O	      4.38113      8.61670      6.24775        -0.018169     -0.011134     -0.098437
O	      1.97712      2.02853      2.11221        -0.078514     -0.003913      0.006358
O	      4.46175      4.46227      2.18804         0.003850      0.061474     -0.045817
O	      4.28017      2.26920      3.97869        -0.109883     -0.041493      0.022036
O	      6.43014      4.31990      4.23273         0.059896     -0.103662     -0.001649
O	      6.38034      2.30696      6.28994         0.023960     -0.014992      0.014320
O	      8.52993      4.41396      6.16721         0.122653     -0.041518     -0.064454
O	      2.34786      4.38252      4.09321        -0.234054      0.004515      0.030244
O	      4.27134      6.33633      4.03536         0.128929      0.170607      0.020749
O	      4.41156      4.31488      5.98197        -0.028220      0.012220      0.193210
O	      6.49002      6.40386      6.20588        -0.084298      0.121730     -0.086003
O	      6.45082      4.18802      8.26633        -0.003997      0.033103      0.081875
O	      8.75085      6.55013      8.42878        -0.036993     -0.024795      0.073162
O	      2.22005      6.44617      5.94462        -0.020762      0.014797      0.139661
O	      4.16039      6.47702      8.26676        -0.018913     -0.060117     -0.053160
O	      6.52502      8.83984      8.28427         0.098172      0.011322     -0.043314
O	      6.53416      6.54887     10.23257        -0.016417     -0.027423      0.034165
O	      8.59131      8.62533     10.33776         0.060706      0.013862      0.005691
