# total energy = -232.03891093 eV
 
CRYSTAL
PRIMVEC
0.012089 6.382892 6.216425 
6.466121 0.014060 6.214801 
4.304250 4.247849 0.015554 
PRIMCOORD
36 1
Li	      6.42737      6.41774     12.29605        -0.011445     -0.033127     -0.004271
Li	      6.55778     10.53935      8.42668         0.038797     -0.027792      0.112469
Li	      8.57464      4.31144      4.20753        -0.056279      0.092643     -0.026303
Li	      6.35363      2.23952      4.18696        -0.110394      0.097671     -0.011487
Li	      2.28991      2.09639      4.23254         0.034775     -0.062886      0.063000
Li	      4.40697      4.10504      4.20836         0.081434      0.006246      0.012698
Li	      4.31838      2.07799      6.03401        -0.016178     -0.028097      0.100149
Li	      2.15948      4.25965      6.15481        -0.053089     -0.027855     -0.014616
Li	      8.47610      8.59614      8.40565        -0.014473      0.053679     -0.085615
Sc	      4.35428      2.16949      2.21050         0.229272     -0.096517     -0.280731
Sc	      4.30897      6.33745      2.11658        -0.075654      0.097483     -0.102513
Mn	      6.47736      4.26084      6.10937        -0.094933      0.169935      0.364783
V	      8.66569      8.51567     12.35748         0.309384      0.043606     -0.536622
V	      4.26784      6.27015      6.21527         0.232922      0.246291      0.245860
Fe	      2.17932      4.27514      2.10358        -0.196753      0.051723     -0.009541
Fe	      6.50765      6.48271      8.32334        -0.112415     -0.228105     -0.279997
Co	      6.47859      4.26877     10.35276         0.076078      0.318746     -0.501764
Ni	      8.57851      6.38365     10.38720        -0.002120     -0.118643      0.022468
O	      2.13954      2.18330      2.02219        -0.025617     -0.007195     -0.284624
O	      4.19815      4.28570      2.10931         0.049388      0.068351     -0.007868
O	      4.29791      2.13998      4.13668         0.016192     -0.057664      0.069097
O	      6.46426      4.26499      4.25727         0.029171      0.003874     -0.157574
O	      6.55414      2.27796      6.22330         0.191291     -0.300359      0.101048
O	      8.67283      4.15481      6.30640         0.077440     -0.219624     -0.137952
O	      1.95902      4.28677      4.07672         0.471000     -0.102588     -0.012090
O	      4.23978      6.52197      4.19959         0.026501     -0.221135     -0.074585
O	      4.22262      4.48906      6.18274         0.004522      0.009529     -0.005734
O	      6.34651      6.25982      6.28596        -0.052249      0.141745     -0.002867
O	      6.53178      4.28410      8.28929         0.106301     -0.118965     -1.635377
O	      8.60852      6.34633      8.27195         0.061668     -0.043726     -0.043664
O	      2.27738      6.47948      6.24388        -0.103108      0.250511      0.012071
O	      4.31515      8.35941      6.11268        -0.451162     -0.391543      2.185843
O	      4.39452      6.44376      8.17956        -0.046441     -0.107591      0.147987
O	      6.44366      8.41424      8.32434         0.034636      0.128715      0.042402
O	      6.52522      6.20755     10.29074        -0.159649      0.297825      0.076481
O	      8.82486      8.49020     10.40780        -0.488817      0.114838      0.659439
