# total energy = -233.13027100 eV
 
CRYSTAL
PRIMVEC
-0.002845 6.387384 6.234450 
6.457735 0.006945 6.223859 
4.296094 4.242696 0.013928 
PRIMCOORD
36 1
Li	      2.22145      6.40802      8.30097         0.024630     -0.018735      0.020189
Li	      4.27471      8.42647      8.36303        -0.001896     -0.013309     -0.016566
Li	      8.60053      4.25015      8.19755        -0.001759      0.011012     -0.018566
Li	      6.45592      6.37291      4.27321        -0.035161      0.054713     -0.012470
Li	      8.45528      6.33120      6.25829        -0.053609      0.002281      0.023886
Li	      6.42787      4.46459      6.27682        -0.024503     -0.032371      0.008448
Li	      4.41591      6.29511      6.43527        -0.028412      0.043313      0.015293
Li	      4.38390      4.38621      8.20057        -0.026957     -0.026811     -0.017238
Li	      6.27508      6.29169      8.22302        -0.055053      0.042800      0.019452
Sc	      8.60273      6.38915     10.35110        -0.015007      0.010136      0.007901
Sc	      6.48139      8.38265      6.42599        -0.001843      0.020176      0.070131
Mn	      6.43033      8.52184     10.34378        -0.017684     -0.053055     -0.011863
V	      6.49918      4.25717     10.31065         0.023434      0.034929      0.083721
V	      6.44193      2.13625      8.23176         0.088824     -0.033674      0.001986
Fe	      2.21022      2.15439      0.07959         0.036395     -0.108718     -0.106958
Fe	      4.21550      0.11010      4.06583        -0.036540     -0.051974      0.123308
Fe	      4.37223      4.15830      4.18037        -0.059981      0.040697     -0.090715
Ni	      4.28109      4.22938      0.07818         0.035141     -0.024064      0.027446
O	      1.91790      2.14701      1.99152        -0.054916      0.006038      0.133118
O	      4.26282      4.37186      2.17000         0.002484      0.012697      0.019238
O	      4.26167      2.14587      4.14243        -0.021581     -0.027398      0.028901
O	      6.42645      4.10351      4.18005         0.019140      0.019651      0.017518
O	      6.56964      2.04825      6.14357         0.023458      0.142161      0.055846
O	      8.66970      4.15316      6.11142        -0.089951      0.065364      0.048780
O	      2.06594      4.30897      4.21364         0.067265      0.017887     -0.051784
O	      4.27241      6.36850      4.02475        -0.001155     -0.041112     -0.057982
O	      4.22321      4.30408      6.08888        -0.011539     -0.016773      0.144079
O	      6.42787      6.43177      6.28304        -0.016820     -0.034747      0.008436
O	      6.47278      4.15969      8.37561         0.018524      0.006679     -0.084245
O	      8.87709      6.39843      8.27590         0.051449      0.001929     -0.014383
O	      2.10900      6.44098      6.20968         0.071800      0.014554     -0.065738
O	      4.26318      8.54802      6.19761         0.054731     -0.107961     -0.048954
O	      4.27806      6.39553      8.44520        -0.008493     -0.003663     -0.151914
O	      6.48732      8.49948      8.45849        -0.037292      0.015050     -0.039422
O	      6.46236      6.43902     10.37017         0.064236      0.032427     -0.071719
O	      8.73474      8.52236     10.43921         0.018642     -0.000131      0.002841
