# total energy = -234.87171868 eV
 
CRYSTAL
PRIMVEC
0.031076 6.372037 6.257025 
6.332094 0.006769 6.281615 
4.197594 4.240521 0.028835 
PRIMCOORD
36 1
Li	      8.47453      8.46574     12.43570        -0.006963     -0.016024     -0.081608
Li	      8.42001      4.22352      4.25032        -0.006861     -0.028507     -0.025364
Li	      6.33461      2.13011      4.26179         0.027323     -0.004948     -0.007717
Li	      2.12924      4.24112      2.13875         0.016525      0.011789      0.037515
Li	      4.20029      4.23609      4.27724         0.017571      0.045327      0.043918
Li	      4.25924      2.14121      6.14061         0.005936      0.021554     -0.044618
Li	      4.22103      8.50632      4.32412         0.015839     -0.015062      0.060822
Li	      2.13597      4.34186      6.21628         0.001834      0.051719      0.030347
Li	      4.17760      6.36370      6.23976         0.014815      0.004166     -0.003469
Sc	      4.24256      6.28743      2.08337         0.021683     -0.030151      0.051337
Sc	      6.33863      6.35597      8.42916        -0.009809     -0.010388      0.024584
Mn	      2.10742      2.24845      4.22847        -0.021489      0.003231     -0.051830
Mn	      2.13789      6.30994      4.28344         0.007979      0.058588     -0.015051
Mn	      8.43960      8.49699      8.40012         0.010498     -0.060927      0.093613
V	      4.19458      2.14558      2.07144        -0.030950      0.050891     -0.263078
V	      6.43383      4.22252      6.17646         0.037832     -0.086518      0.009152
Ni	      6.31358      6.39480     12.45570        -0.111104     -0.004852      0.034362
Ni	      2.16321      6.34799      8.34057        -0.006471     -0.014317      0.020673
O	      2.15242      2.08968      2.15867        -0.042558      0.114066      0.100892
O	      4.25316      4.19596      2.03314        -0.106854      0.084255      0.111583
O	      4.08744      2.19415      3.97808        -0.055165      0.017812      0.135009
O	      6.28943      4.26428      4.27423         0.024967     -0.080354      0.018485
O	      6.30266      2.18417      6.27733         0.007746      0.077055     -0.020353
O	      8.26468      4.22790      6.28663        -0.054925     -0.009116      0.008308
O	      2.14626      4.35621      4.24762         0.019851      0.047602      0.015379
O	      4.34671      6.40559      4.19147         0.163167      0.029229      0.004483
O	      4.42230      4.23773      6.45503        -0.024953      0.007830     -0.058216
O	      6.37665      6.23846      6.27089         0.025290      0.010118     -0.051873
O	      6.30505      4.22878      8.28249        -0.028334      0.024240      0.003921
O	      8.46265      6.33509      8.51119        -0.033027      0.001667     -0.018152
O	      2.07744      6.39714      6.22151         0.068703      0.010400     -0.044591
O	      4.17436      8.54824      6.50102         0.009696     -0.055363      0.045059
O	      4.22378      6.46900      8.36421         0.133686     -0.064220     -0.002916
O	      6.29820      8.49422      8.35137         0.049258     -0.139217      0.031118
O	      6.30016      6.34499     10.44579        -0.122563      0.014871     -0.174595
O	      8.45572      8.34993     10.31454        -0.018173     -0.066446     -0.017132
