# total energy = -233.90755058 eV
 
CRYSTAL
PRIMVEC
0.021615 6.367068 6.206817 
6.448972 0.002126 6.225783 
4.305107 4.263507 -0.004753 
PRIMCOORD
36 1
Li	      6.47243      6.35747     12.36155         0.012141      0.065597      0.032190
Li	      4.34246      0.16154      4.16745        -0.043537     -0.046913      0.001656
Li	      6.24632      2.02116      4.24403         0.008771     -0.055458      0.029899
Li	     10.55810      6.42904      8.38243         0.104804     -0.028437     -0.054718
Li	      2.30666      4.34138      2.09961         0.076822     -0.026801      0.010312
Li	      4.35236      4.23410      4.09659         0.043791      0.021520     -0.016335
Li	      8.61986      6.39281      6.22917         0.031689     -0.023209      0.017226
Li	      6.45195      4.24452      6.14752         0.007656     -0.024631     -0.009988
Li	      8.59400      6.34864     10.34536        -0.082206      0.022271      0.066631
Sc	      6.32216      4.23762      2.14965        -0.089690      0.099429     -0.087654
Sc	      6.55010      6.28410      8.35418        -0.098885      0.183741     -0.055376
Ti	      2.29707      4.31397      6.08880         0.234276      0.117380      0.033037
Mn	      8.69332      8.44514      8.36397        -0.152458      0.075698      0.014524
V	      8.47347      2.35281      6.15916        -0.048553     -0.063993      0.356056
Cr	      2.20943      2.12858      4.14412        -0.023166     -0.050637     -0.183420
Co	      4.27962      2.12703      2.06880         0.040756      0.274862      0.275109
Cu	      4.31839      6.39726      6.13653        -0.045976     -0.161750      0.045312
Ni	      0.04175      4.26320      4.13494        -0.020904      0.020046      0.048624
O	      2.32723      2.08146      1.97852        -0.984150     -0.158214     -0.163427
O	      4.30705      4.07990      2.07410         0.088418      0.533934     -0.001932
O	      4.21906      2.13884      4.00727         0.050422     -0.061586     -0.044888
O	      6.47188      4.39041      4.15027        -0.007145      0.055675      0.018280
O	      6.74422      2.12675      6.27052        -0.161242      0.009192     -0.064307
O	      8.60961      4.06434      6.22172         0.028497      0.162029      0.005572
O	      2.12678      4.19579      4.21560         0.097627     -0.001553      0.158410
O	      4.49929      6.46901      4.18468        -0.004950     -0.052472     -0.062711
O	      4.16247      4.35295      6.20755        -0.105392     -0.117037     -0.114449
O	      6.61315      6.56334      6.14142         0.084120      0.092640      0.020658
O	      6.44327      4.26673      8.28607        -0.164871     -0.037690     -0.079019
O	      8.58578      6.38838      8.27769         0.053037      0.148453      0.028579
O	      2.02943      6.20846      6.21922        -0.046001     -0.203222     -0.076820
O	      4.20349      8.40841      6.29378         0.048236      0.089160      0.035696
O	      4.29686      6.43889      8.18641         0.055842     -0.692752      0.077239
O	      6.32810      8.48924      8.18914         0.984548     -0.148822     -0.114407
O	      6.41864      6.34199     10.33917         0.001010      0.008058     -0.003942
O	      8.69993      8.43960     10.59879         0.026663     -0.024509     -0.141618
