# total energy = -89.73897853 eV
 
CRYSTAL
PRIMVEC
-1.988017 4.079409 -1.989323 
1.898296 3.988798 1.897692 
1.953446 0.046924 -5.841335 
PRIMCOORD
16 1
Li	      1.78842      5.80172     -3.77503         0.611953      0.593134     -0.603402
Li	      1.81590      3.89821     -5.61181         0.481239     -0.003151     -1.249823
Li	     -0.01266      1.94770     -1.89240        -0.330284     -0.294969      0.254334
Li	      1.82752      3.85446     -1.91707         0.154134      0.024025      1.217053
Mn	      3.65068      3.85444     -3.73782         4.997060      0.189876     -1.404840
Mn	     -0.03460      5.80109     -1.95416        -2.227344      3.122846      1.080955
Ni	      0.00130      3.89681     -3.80261        -2.207772     -1.385244     -0.796056
Ni	      1.80196      1.94933     -3.70157         0.662195     -2.788241     -0.738087
O	     -0.02572      3.97894     -5.69847        -0.899507     -0.182348     -2.148622
O	      1.71718      5.84115     -1.92308         2.883415      0.212084      0.343184
O	      1.89890      3.81429     -3.76889        -0.673992      1.367629      0.028369
O	      1.81536      3.67720      0.03259         0.137972      0.043360      1.436708
O	     -0.06964      5.76302     -3.70557        -0.133367      1.939218     -3.260720
O	     -0.06480      5.93353     -0.14607        -0.734668      0.820267      3.093053
O	     -0.11879      4.02982     -1.90753        -0.963651     -2.680895      1.356816
O	      0.05645      1.77161     -0.01822        -1.757384     -0.977590      1.391079
