# total energy = -239.08496886 eV
 
CRYSTAL
PRIMVEC
0.042262 6.394697 6.323548 
6.293046 0.016567 6.350671 
4.200750 4.287391 0.005170 
PRIMCOORD
36 1
Li	      4.24435     10.59489      6.33656         0.017691      0.013694      0.111944
Li	      2.13938      2.29520      0.15862         0.031629      0.016445     -0.030640
Li	      2.07787      6.46907      8.27409        -0.066293      0.005305     -0.023867
Li	      8.46371      4.25961      4.39801        -0.066628      0.116117      0.062523
Li	      0.06951      2.13316      2.10106        -0.015334     -0.007333      0.042881
Li	      2.16916      4.07679      2.02793         0.042609     -0.049366      0.028984
Li	      6.44327      4.20146      6.37116        -0.022649     -0.006512      0.029407
Li	      4.14773      6.50891      6.33683        -0.031308      0.015047     -0.041048
Li	      6.32095      6.45076      8.48256         0.003582      0.028173     -0.076724
Sc	      6.29250      6.29368      4.14002        -0.119575     -0.011514      0.079480
Sc	      8.39753      6.27032      6.52540        -0.059932     -0.052563     -0.050456
Ti	      4.31198      4.50437      8.41790         0.268170      0.197660     -0.062852
Mn	      4.13785      4.29808      4.15783        -0.099756      0.017379      0.061896
Mn	      6.26093      8.59070      6.36025         0.019258     -0.097767     -0.117614
V	      6.33874      8.48086     10.61927        -0.088992     -0.452460     -0.052064
Cr	      6.30779      4.33523     10.55351         0.172307     -0.257636     -0.068481
Co	      4.22901      8.48713      8.42954        -0.192173      0.059456     -0.113278
Cu	      8.43810      6.44244     10.55299        -0.175157     -0.228464     -0.063105
O	      2.17434      2.04904      2.12147         0.263574     -0.010983     -0.001726
O	      4.19899      4.16466      2.28354        -0.018366     -0.322504     -0.158360
O	      4.27461      2.03426      4.31130         0.106275      0.110359     -0.018418
O	      6.09312      4.18377      4.30363         0.206485     -0.190003      0.012559
O	      6.32236      2.14877      6.12150         0.018817     -0.069181     -0.149451
O	      8.39111      4.32671      6.42321         0.024022      0.021499     -0.014330
O	      2.10081      4.13041      4.12335        -0.190577     -0.206494      0.043755
O	      4.20835      6.54777      4.17932         0.290905      0.143227     -0.010772
O	      4.09705      4.27433      6.36751        -0.036476     -0.036254      0.145705
O	      6.35389      6.57903      6.29119         0.054694      0.036147      0.053725
O	      6.19189      4.37153      8.51741        -0.325293      0.060109      0.028552
O	      8.45903      6.68817      8.50536        -0.029587      0.077688      0.039314
O	      2.10935      6.19910      6.19581        -0.066888      0.020165      0.084497
O	      4.30949      8.55729      6.19684         0.010265      0.032081      0.018997
O	      4.22467      6.36314      8.38688        -0.005651     -0.021010      0.003880
O	      6.35952      8.57521      8.65621        -0.031391     -0.026248      0.159335
O	      6.42116      6.47769     10.54078         0.282854      0.937374      0.097222
O	      8.41853      8.73408     10.43562        -0.171108      0.138368     -0.051470
