# total energy = -238.98643506 eV
 
CRYSTAL
PRIMVEC
0.008084 6.349519 6.322000 
6.285255 0.014716 6.315678 
4.191940 4.230603 0.007881 
PRIMCOORD
36 1
Li	      8.38090      8.49053     12.56661         0.002353      0.001283      0.004742
Li	      8.37337     10.47415     10.60267         0.002940      0.046666      0.035033
Li	      6.38573      8.50496     10.54976        -0.038351     -0.023208      0.037451
Li	      2.09751      4.20861      2.27441         0.012482      0.006790      0.323704
Li	      2.11751      2.15230      4.18611         0.072542      0.482823     -0.107386
Li	      4.07268      4.21106      4.22220        -0.360292     -0.068546     -0.021960
Li	      6.35587      4.28849     10.47273         0.366729      0.016568      0.002275
Li	      8.36466      6.38507     10.52330        -0.012011     -0.430871     -0.006054
Li	      2.05522      4.26977      6.16333         0.033101      0.008397     -0.321028
Sc	      6.28243      4.22633      2.29449        -0.191931      0.142378      0.055796
Sc	      4.12214      2.14509      6.16490         0.091254      0.046649     -0.270557
Ti	      6.29119      6.31597     12.46313        -0.134723     -0.041716     -0.052373
Mn	      4.22055      6.39332      2.19406         0.028891     -0.017833      0.085756
Mn	      8.39423      8.46807      8.51676         0.007501     -0.077248     -0.028315
V	      4.15368      6.39080      6.18357        -0.167733      0.014660     -0.379712
Cr	      4.16574      2.14022      2.18848        -0.106720      0.176546      0.018573
Co	      6.32201      6.34689      8.48784         0.111206     -0.005039     -0.264959
Ni	      6.33039      4.22230      6.25114         0.059526     -0.068637     -0.039223
O	      2.10853      4.22348      4.22786        -0.062787      0.025730      0.020217
O	      2.13200      2.06320      2.14234         0.097282     -0.168232     -0.055734
O	      4.22872      4.16975      1.99766         0.117394     -0.073631     -0.077673
O	      4.16802      2.15269      4.16934         0.192697     -0.224641      0.057208
O	      6.28163      4.22935      4.26214         0.046441     -0.040653     -0.151226
O	      6.25627      1.99228      6.32086        -0.023620     -0.066400      0.074766
O	      8.51349      4.27577      6.27151         0.221065     -0.001714     -0.025758
O	      4.18005      6.36171      4.42882         0.034639      0.004614      0.184070
O	      4.21320      4.34601      6.46310        -0.018154      0.009884      0.111312
O	      6.19774      6.33120      6.39463         0.062883      0.034750      0.786512
O	      6.25556      4.32638      8.34052         0.019995      0.182329      0.112165
O	      8.34707      6.38923      8.36261        -0.577553      0.030235     -0.072408
O	      2.11986      6.36145      6.37582        -0.007284      0.017253      0.055371
O	      4.17779      8.47628      6.43453        -0.031816      0.089286      0.023847
O	      4.23680      6.44137      8.29835         0.336089     -0.028407      0.112532
O	      6.26082      8.39290      8.47629        -0.035205     -0.160607      0.027680
O	      6.33816      6.31355     10.63735        -0.151408      0.155806     -0.282462
O	      8.43085      8.47547     10.34456         0.002578      0.004738      0.027814
