# total energy = -237.32518656 eV
 
CRYSTAL
PRIMVEC
-0.014602 6.499500 6.275244 
6.365840 0.009256 6.251208 
4.248867 4.323139 -0.000364 
PRIMCOORD
36 1
Li	      0.13836      6.44556      6.15312        -0.064271      0.050468     -0.053047
Li	      2.12967      8.52873      6.21018        -0.049695      0.039618     -0.030022
Li	      2.03767      6.51146      8.06523         0.044077      0.022187     -0.006994
Li	      8.57099      4.29984      4.39098        -0.039872      0.091504     -0.002809
Li	      6.33500      6.51198      4.33813         0.026532     -0.039946     -0.042120
Li	      8.47914      6.40904      6.19279         0.051900     -0.030185     -0.044025
Li	      4.19108      8.74278      4.37919        -0.074316      0.033574     -0.065862
Li	      1.99990      4.51055      6.13016        -0.031574     -0.004769     -0.002457
Li	      4.12437      6.59418      6.11202         0.035539      0.072373     -0.086756
Sc	      4.16484      8.66383      8.18533         0.040334     -0.235154      0.255287
Sc	      6.43855      6.53060      8.29078        -0.043325      0.098416      0.036864
Ti	      4.13175      4.58375      8.39241        -0.142525      0.273301      0.533078
Mn	      4.30221      6.41906      2.10550         0.027959      0.030434      0.142992
Mn	      2.15202      4.28162      2.10014        -0.052303      0.012140     -0.141780
V	      4.25827      4.26065      4.26186         0.482360     -0.063223      0.575441
Cr	      6.37431      4.32082      6.29940         0.092143     -0.052000      0.083497
Cu	      6.36344      2.18028      4.28211        -0.116036     -0.095976      0.019991
Cu	      2.04283      6.49664      4.29085         0.175561      0.029259     -0.123418
O	      2.11856      6.52403      6.15483        -0.001008     -0.031953      0.180043
O	      2.08894      2.26954      2.10015         0.037644     -0.007567     -0.048732
O	      4.30492      4.25162      2.17832         0.064896     -0.000071      0.379166
O	      4.34633      2.34998      4.14341        -0.130115     -0.806226     -0.055060
O	      6.27871      4.18172      4.33744        -0.115515      0.089765     -0.342818
O	      6.33894      2.29180      6.49746         0.013746      0.006009     -0.031997
O	      8.35932      4.36592      6.45452         0.059015     -0.052729      0.127809
O	      2.29249      4.21313      4.05128         0.087614      0.009933      0.023572
O	      4.29935      6.17757      4.05608        -0.346349      0.739555      0.072962
O	      4.32774      4.31544      6.25046        -0.210609     -0.008035     -0.562142
O	      6.39808      6.31652      6.29882        -0.000423     -0.034995      0.022568
O	      6.17566      4.38708      8.37842        -0.026388      0.056898     -0.038667
O	      8.53658      6.44938      8.48473         0.022171     -0.090035     -0.068596
O	      4.23322      8.65836      6.26939         0.012465      0.062604     -0.099335
O	      4.25237      6.46113      8.32942        -0.049558     -0.219232     -0.055976
O	      6.48411      8.61890      8.16578         0.177418      0.046764     -0.237762
O	      6.34624      6.69426     10.41561        -0.081320     -0.073654      0.051909
O	      8.39825      8.78963     10.24475         0.123829      0.080949     -0.364804
