# total energy = -246.51130059 eV
 
CRYSTAL
PRIMVEC
0.026838 6.443111 6.319104 
6.451548 0.030483 6.315109 
4.320172 4.311881 0.001331 
PRIMCOORD
36 1
Li	      4.45366      6.47203     10.46198         0.079142      0.010940     -0.036747
Li	      6.49182      8.46883     10.46765        -0.045745     -0.070965     -0.035351
Li	     10.67807      6.58601      8.49987        -0.056174      0.091011      0.068749
Li	     10.78599      8.65078     10.54256         0.050664     -0.006930      0.040600
Li	      8.59797      6.51213     10.49566        -0.018512     -0.015460     -0.008179
Li	      6.47926      8.59915      6.30785         0.007439     -0.065987     -0.003897
Li	      4.33033      6.49706      6.30260         0.008563      0.032839     -0.028717
Li	      8.65853      8.54049      8.48069         0.029996     -0.087198      0.005467
Li	      6.43929      6.55645      8.51942        -0.021791      0.010906      0.040614
Sc	      6.60168     10.67170      8.46960         0.037082     -0.035661     -0.035443
Sc	      8.59166      4.44636      8.51699        -0.025031      0.030428      0.015047
Ti	      6.33857      4.36109      6.37101        -0.303292      0.125575      0.243687
Mn	      6.52049      6.43263     12.53367        -0.018444     -0.004923      0.104839
Mn	      4.31425      2.18002      6.32847         0.017658      0.009735     -0.050194
V	      8.63202      8.62154     12.41366         0.037636     -0.056367      0.204352
Cr	      4.36823      8.54497      8.41789        -0.034448      0.035918     -0.044358
Fe	      6.39053      6.50609      4.24074         0.014883      0.027479     -0.056305
Fe	      4.30200      4.38515      4.21258        -0.059751     -0.001187     -0.014168
O	      2.25710      2.14550      2.09237         0.061463      0.001940     -0.002605
O	      4.31811      4.20913      1.95012        -0.004218     -0.085320     -0.107681
O	      4.21570      2.27787      4.13801         0.009687     -0.110454     -0.050635
O	      6.49864      4.40300      4.27490         0.087771     -0.006499      0.045816
O	      6.59388      2.27535      6.29937         0.086091      0.053598     -0.051934
O	      8.58100      4.20328      6.34773         0.041780     -0.067850     -0.040156
O	      2.13829      4.19211      4.23690        -0.088111      0.031938      0.003718
O	      4.45079      6.39088      4.16898        -0.031780      0.145517      0.032070
O	      4.46301      4.30693      6.36078         0.356568      0.021238      0.089965
O	      6.49719      6.29634      6.24052        -0.026147     -0.181052      0.059268
O	      6.52063      4.32962      8.25778         0.001576      0.007605     -0.235537
O	      8.65936      6.42136      8.42399        -0.016776     -0.016875      0.098742
O	      2.12177      6.62612      6.35848        -0.077863      0.083428     -0.039477
O	      4.17343      8.62167      6.38437        -0.069399      0.013176      0.002342
O	      4.29234      6.55336      8.44717        -0.025079      0.044265      0.001796
O	      6.37895      8.65470      8.40013        -0.001434      0.014774      0.007712
O	      6.47876      6.46723     10.69568         0.020664      0.017395     -0.021496
O	      8.67618      8.62021     10.68427        -0.024668      0.003024     -0.201905
