# total energy = -238.36699646 eV
 
CRYSTAL
PRIMVEC
0.011370 6.287333 6.311039 
6.373108 0.006201 6.316249 
4.256400 4.202701 -0.003534 
PRIMCOORD
36 1
Li	      8.49508      8.41847     12.47281        -0.068699      0.043788     -0.077358
Li	      4.23819      2.16628      2.10825        -0.021187     -0.024158      0.002701
Li	      8.43348      4.12279      4.23239        -0.016291     -0.004041      0.031911
Li	      6.46472      2.16583      4.25077         0.015583      0.043080      0.017837
Li	      4.24813      6.31351      2.13903         0.023294      0.001238     -0.042114
Li	      4.27958      2.15969      6.30798         0.100296     -0.081273      0.032207
Li	      6.32237      4.14150      6.32154        -0.048915     -0.090751     -0.017239
Li	     10.55489      8.37196     10.52963         0.041661      0.032760     -0.028468
Li	      8.53958      6.38967     10.48998         0.004881     -0.066247     -0.067371
Sc	      4.18343      6.35932      6.24185        -0.029229      0.241082      0.047023
Sc	      6.39739      6.30096      8.45711         0.243162      0.082650      0.143501
Ti	      2.23962      2.08644      4.17631         0.322827      0.236824     -0.452627
V	      6.25702      0.09019      6.19441        -0.175406      0.398398     -0.157029
Cr	      6.35505      4.20069      2.11887         0.059173      0.065999      0.096130
Fe	      8.58763      8.32507      8.54845        -0.135209     -0.134732      0.023782
Co	      4.27620      4.18451      4.21958        -0.091265     -0.189551     -0.153580
Co	      2.12533      4.18779      2.11511        -0.164995     -0.058074      0.167462
Co	      2.12329      4.20322      6.28556         0.008963     -0.049089      0.075254
O	      2.13178      2.03327      2.23433         0.017716     -0.360722      0.219975
O	      4.33961      4.17785      1.95956        -0.094848      0.022655      0.212696
O	      4.11221      2.11129      4.24647        -0.136598      0.080943      0.079501
O	      6.36948      4.28240      4.14279         0.263657      0.127831      0.026957
O	      6.39256      1.87119      6.29680        -0.032079     -0.294130     -0.009375
O	      8.72720      4.16185      6.36563         0.190215      0.026912      0.077821
O	      2.16453      4.07524      4.15995        -0.288065     -0.108672     -0.243091
O	      4.38000      6.27120      4.22824        -0.077648     -0.206134      0.198779
O	      4.21294      4.24577      6.36485        -0.194142      0.056349     -0.272423
O	      6.31808      6.27617      6.28215        -0.089388      0.312447      0.010967
O	      6.35485      4.24594      8.37687         0.171454     -0.038222     -0.034108
O	      8.44179      6.31597      8.42640        -0.092315      0.363467     -0.065793
O	      2.05579      6.32456      6.38981         0.082649     -0.324576     -0.016722
O	      4.30349      8.50671      6.29701         0.190803     -0.091753     -0.022390
O	      4.22269      6.26015      8.39050        -0.032355     -0.000865     -0.101648
O	      6.45265      8.43982      8.42884         0.009412     -0.016958      0.153248
O	      6.39014      6.28600     10.68700        -0.012364     -0.017547      0.064744
O	      8.52358      8.39186     10.43315         0.055255      0.021076      0.078839
