# total energy = -251.01040942 eV
 
CRYSTAL
PRIMVEC
-0.024985 6.346901 6.338766 
6.319169 -0.020128 6.334225 
4.208764 4.224165 -0.009341 
PRIMCOORD
36 1
Li	      6.29359      6.30481     12.63639         0.036257     -0.035048     -0.021985
Li	      4.19007      8.40716      8.39430         0.006198     -0.003301     -0.019058
Li	      6.29401      6.33175      4.32001        -0.036429      0.017018     -0.014903
Li	      6.25325      4.34672      6.36982        -0.028092      0.004769      0.036022
Li	     10.47954      8.44735     10.53327        -0.019139      0.006212     -0.005156
Li	      8.36643      6.31634     10.51201        -0.026542     -0.026271      0.008166
Li	      4.28290      6.32340      6.34410        -0.052790      0.008372      0.011959
Li	      4.24694      4.24019      8.48559        -0.011643      0.005668      0.039248
Li	      6.24741      6.29298      8.38957        -0.029287      0.013854      0.054121
Sc	      2.14864      8.38971      6.26666         0.067643     -0.046928     -0.065940
Sc	      6.21992      8.33501      6.30880         0.012655      0.096911      0.007439
Ti	      6.31628     10.49211      8.48386         0.071741     -0.119573     -0.106279
Ti	      4.26795      6.45327     10.51492         0.178383     -0.000843     -0.094779
Ti	      8.36267      4.30421      8.41148        -0.130170      0.080551      0.033106
Ti	      4.24313      4.29099      4.27641        -0.022038      0.161704      0.132715
Cr	      6.31357      2.09440      8.39930        -0.027300      0.054927      0.142473
Cu	      8.34205      6.35063      6.30172        -0.054473      0.098086     -0.022532
Ni	      6.32125      2.08759      4.26550         0.077943     -0.016044     -0.043756
O	      2.02847      2.06838      2.08636         0.008224     -0.001384     -0.008172
O	      4.17656      4.28070      2.13186         0.014209     -0.024227     -0.015768
O	      4.24402      2.08851      4.11213        -0.069972     -0.051705     -0.012305
O	      6.31658      4.21662      4.21335         0.031049      0.078487      0.035318
O	      6.36225      2.08148      6.38747        -0.065626      0.006053      0.005356
O	      8.45640      4.11341      6.43929         0.007630     -0.048075      0.036777
O	      2.22567      4.16391      4.14268         0.018240      0.017521      0.027890
O	      4.21618      6.17321      4.07350         0.018641     -0.148748      0.007633
O	      4.16941      4.31006      6.16175         0.072486      0.013707     -0.084668
O	      6.25444      6.36463      6.39772         0.042806     -0.081798     -0.020820
O	      6.47145      4.11306      8.48739         0.088710      0.005168     -0.030441
O	      8.48816      6.17684      8.53999        -0.004142     -0.141342     -0.066628
O	      2.08411      6.32014      6.48889        -0.003126      0.006583      0.035425
O	      4.19080      8.42571      6.27855        -0.015312     -0.008858      0.015545
O	      4.08613      6.35872      8.58033        -0.031244      0.023068      0.044383
O	      6.29107      8.59821      8.44946        -0.027991      0.140551     -0.030972
O	      6.14135      6.39294     10.54212        -0.148910     -0.064529      0.000497
O	      8.35313      8.62738     10.56048         0.051410     -0.020539     -0.009911
