# total energy = -250.04922488 eV
 
CRYSTAL
PRIMVEC
0.031263 6.226848 6.411374 
6.345647 -0.024089 6.468709 
4.220311 4.178101 -0.005812 
PRIMCOORD
36 1
Li	      6.34705      4.22942      2.31972         0.006553      0.053543     -0.005440
Li	      4.20162      2.02288      2.34140        -0.026309     -0.043107      0.038458
Li	      4.16029      0.06699      4.24988        -0.019758     -0.003045     -0.021187
Li	      4.19742      6.20486      2.20553         0.000898     -0.001441      0.041689
Li	      8.50879      4.21372      8.59921         0.005184      0.007472     -0.010896
Li	      2.17724      1.97116      4.21371        -0.037094      0.006780     -0.019834
Li	      6.41342      4.14422      6.29038         0.006244      0.029083     -0.164149
Li	      8.50021      6.17935     10.65220         0.042863     -0.014468     -0.019563
Li	      6.35365      6.21569      8.61779        -0.028614     -0.015372     -0.005666
Sc	      4.29533      6.19143      6.43910         0.086647     -0.114699      0.016502
Sc	      8.39816      8.29586      8.73450        -0.047348     -0.010230      0.013395
Ti	      4.23872      4.18894      0.08935        -0.066874      0.114681      0.644335
Ti	      8.37907      2.11354      6.58188        -0.093320      0.079373      0.735087
Ti	      6.45331      4.13986     10.59943         0.118103     -0.111907     -0.457508
Ti	      6.33195      8.33201      6.45853         0.156472     -0.155502      0.267405
Cr	      8.43705      6.20961      6.44671        -0.025399      0.002542      0.052372
Cu	      6.19916      2.17000      4.24300         0.003712      0.024613     -0.123292
Cu	      4.35080      4.09855      4.11156         0.003747      0.055333     -0.157654
O	      2.14195      2.09557      1.91656        -0.031260      0.014942     -0.707651
O	      4.21632      4.13350      1.93362        -0.008352      0.047734     -0.678201
O	      4.20310      2.06928      4.43813        -0.129794     -0.100168      0.059907
O	      6.32826      4.14698      4.29287         0.125101      0.054432     -0.001071
O	      6.36617      2.01036      6.51864         0.116719     -0.087168      0.043714
O	      8.51549      4.14356      6.44656         0.060002     -0.104529     -0.012066
O	      2.05118      4.18404      4.43872        -0.224971     -0.013710      0.129666
O	      4.26302      6.36700      4.32989         0.025954      0.234624      0.028521
O	      4.14196      4.08680      6.53990        -0.115113     -0.030027      0.133306
O	      6.40373      6.32394      6.41300        -0.015244      0.119038      0.029171
O	      6.32944      4.14611      8.75826        -0.009654      0.011101      0.486655
O	      8.44449      6.25214      8.45838        -0.007308      0.061141     -0.015808
O	      2.11712      6.25912      6.38966        -0.069671     -0.008881     -0.027458
O	      4.23600      8.33436      6.35287         0.026727      0.072268     -0.059330
O	      4.26353      6.17140      8.47077        -0.004343     -0.034958     -0.016001
O	      6.32067      8.32315      8.35502         0.035051     -0.010040     -0.387999
O	      6.41217      6.09853     10.89731        -0.018304     -0.144385      0.060384
O	      8.63450      8.28408     10.81875         0.158752      0.014937      0.110208
