# total energy = -253.34406459 eV
 
CRYSTAL
PRIMVEC
0.041167 6.401950 6.314685 
6.479878 -0.016404 6.370747 
4.307394 4.293731 0.001461 
PRIMCOORD
36 1
Li	      6.37309      0.16858      6.32249        -0.045491     -0.062861     -0.006066
Li	      8.49259      2.14166      6.37852         0.068340     -0.004782     -0.054771
Li	      8.72073      4.28968      4.34855         0.006429     -0.037608      0.009386
Li	      6.60148      8.32704     10.71319        -0.000660      0.005201     -0.037678
Li	      6.46087      2.08076      8.34361        -0.033363     -0.011543      0.081965
Li	      8.78854      4.24673      8.29694         0.046717     -0.008612      0.025816
Li	      8.78626      6.26424      6.38364        -0.030281     -0.024786     -0.010110
Li	      8.49508      6.52048     10.60952         0.014725     -0.013017     -0.017014
Li	      4.32308      6.41735      6.37736         0.017296      0.033046     -0.037863
Sc	      4.32046      4.30126      4.20647         0.003043      0.048799      0.045472
Sc	     10.76213      8.60045     10.64125        -0.010885      0.008249     -0.022103
Ti	      4.27729      8.48133      8.38270         0.026537     -0.039056     -0.014733
Ti	      6.49659      6.36179      4.30898        -0.024286     -0.037765      0.089841
Ti	      2.18234      4.47112      6.42555        -0.001673      0.165774     -0.059181
Ti	      8.58927      8.42252      8.46822         0.037052     -0.333676      0.126238
Mn	      6.51622      6.34675      8.45905         0.042253     -0.026585     -0.044570
Fe	      6.69885      4.04828      6.39654        -0.126713      0.125752      0.002018
Cu	      2.12562      0.17445      1.94856        -0.121124      0.177827     -0.120847
O	      2.29746      2.20884      2.25123         0.071555      0.028458      0.011655
O	      4.31201      4.09034      2.17132         0.000336     -0.059354     -0.032764
O	      4.19218      2.17344      4.13439        -0.055067      0.038797     -0.013601
O	      6.40052      4.43004      4.44478         0.008130      0.073836      0.012214
O	      6.50493      2.17722      6.35317        -0.041425     -0.179019     -0.002037
O	      8.54674      4.27446      6.39391         0.208840     -0.031947     -0.019669
O	      2.17726      4.15835      4.33666        -0.001754      0.025445     -0.006169
O	      4.53060      6.40903      4.14912         0.097706     -0.013798      0.048532
O	      4.24247      4.31747      6.40669        -0.001036      0.037825      0.015735
O	      6.52234      6.52680      6.22956        -0.045821      0.000927     -0.163409
O	      6.30361      4.23569      8.40946        -0.058800     -0.044715      0.071096
O	      8.64863      6.57692      8.44737        -0.007071      0.351886      0.019468
O	      2.22131      6.28306      6.20862        -0.003997     -0.132168      0.005902
O	      4.41956      8.50385      6.37489        -0.002965      0.049767      0.048234
O	      4.39052      6.51663      8.41875        -0.007551      0.014247      0.061181
O	      6.51468      8.52070      8.44315         0.011991     -0.027033      0.021791
O	      6.52746      6.29492     10.58334        -0.027833     -0.039065      0.047964
O	      8.70130      8.56049     10.39478        -0.013156     -0.058445     -0.081924
