# total energy = -257.04907820 eV
 
CRYSTAL
PRIMVEC
-0.007274 6.446857 6.262625 
6.421268 -0.017507 6.273085 
4.271063 4.294827 -0.001878 
PRIMCOORD
36 1
Li	      6.39932      4.30169      2.30668         0.003182      0.006079     -0.026146
Li	      4.25860      6.41502     10.35806         0.024589     -0.000791      0.036585
Li	      6.42204      8.63850     10.39251         0.020747     -0.002499      0.036917
Li	      0.02295      2.23963      2.16283        -0.018955      0.080283     -0.009667
Li	      2.06110      4.24352      2.13002         0.000884     -0.022219      0.027530
Li	      6.32793      6.33647      4.09111        -0.034587     -0.036221     -0.005246
Li	      4.39489      4.33240      4.08032        -0.007496      0.040181     -0.000133
Li	      6.43676      4.33457     10.28330         0.008643      0.048918     -0.013682
Li	      6.35949      6.36338      8.46178        -0.043641     -0.015619     -0.017108
Sc	      6.42122      4.30743      6.20479         0.010914      0.047583      0.019613
Sc	      8.47427      6.40984     10.26772        -0.036546     -0.101317     -0.134099
Ti	      8.54236      2.15058      6.27298        -0.252825      0.215647      0.019952
Ti	      4.29604      2.20440      2.30899        -0.049257      0.182403      0.366602
Ti	      4.22389      6.48784      6.21942         0.205263     -0.108025     -0.100968
Ti	      6.40862      8.51075      6.22015         0.110755     -0.123907     -0.294634
Mn	      6.37342      0.02550      6.25066        -0.094744      0.142840      0.043631
Fe	      8.56581      6.40584      6.25986         0.002439     -0.023374     -0.145118
Fe	      4.34029      4.34238      8.45192        -0.161063     -0.005758      0.036482
O	      2.31858      2.10476      1.96250         0.061505      0.027638     -0.108698
O	      4.27366      4.06447      2.10010         0.009408     -0.272607      0.026625
O	      4.29822      2.11359      4.16658         0.025968      0.027083     -0.407006
O	      6.39770      4.29289      4.23914         0.013521     -0.027532      0.056933
O	      6.58869      2.16680      6.33062         0.279155     -0.003638     -0.039851
O	      8.51524      4.13539      6.27909         0.013117     -0.280300      0.021218
O	      2.09571      4.34451      4.34332         0.010618      0.018056      0.255324
O	      4.22358      6.45243      4.32510        -0.011985     -0.019124      0.161702
O	      4.17717      4.37725      6.28665        -0.056705      0.012674     -0.152995
O	      6.33611      6.51321      6.23088        -0.067396      0.059785      0.020935
O	      6.32905      4.28954      8.31482         0.109503      0.002843     -0.004617
O	      8.57703      6.40985      8.25030        -0.012545      0.040125      0.237472
O	      2.20155      6.43796      6.23714         0.018366      0.068876     -0.004647
O	      4.30024      8.52110      6.32577        -0.071372     -0.048322      0.037792
O	      4.26937      6.56443      8.23322         0.015033      0.074839     -0.107363
O	      6.32090      8.61129      8.22490        -0.049046     -0.039394     -0.071634
O	      6.47925      6.45187     10.44228         0.048264      0.002112      0.003898
O	      8.59302      8.52232     10.60488        -0.023708      0.032681      0.234401
