# total energy = -259.40514704 eV
 
CRYSTAL
PRIMVEC
0.016777 6.356737 6.381097 
6.474751 0.037634 6.360827 
4.318921 4.226216 0.023065 
PRIMCOORD
36 1
Li	      2.28791      8.46760      6.48833         0.130673      0.040676      0.088369
Li	      2.09343      0.11137      2.12701        -0.253357      0.016966     -0.069346
Li	      4.20032      2.20624      2.08813         0.003268      0.183310     -0.135146
Li	      2.23859      4.15542      2.06478         0.214370     -0.036838     -0.113963
Li	      4.32056      4.23192      4.19911        -0.022149     -0.011138     -0.199925
Li	      6.46894      4.24979      6.36908         0.080448     -0.030754     -0.055829
Li	      4.39362      8.42071      4.35525         0.031880      0.043545      0.215837
Li	      4.29069      6.38336      6.45261        -0.017725      0.172580      0.030007
Li	      4.32961      4.30319      8.41653        -0.072314     -0.016251     -0.023370
Sc	      8.63433     10.50566     10.67691         0.123326      0.186396      0.636925
Sc	      6.58245      2.19043      8.40825         0.173165     -0.921757     -0.373101
Ti	      6.46078      8.51889     10.56240        -0.318452      0.226029     -0.099285
Ti	      2.26817      6.31300      4.26803         0.271744     -0.234082      0.198498
Ti	      6.49852      8.54604      6.47963        -0.950425      0.246873      0.317569
Ti	      6.39859      6.22899      8.44272        -0.006362      0.168540     -0.073607
Mn	      2.14743      2.16586      4.23852        -0.019103     -0.124974     -0.253473
Mn	      4.33246      2.18485      6.40671         0.195688     -0.364255      0.011389
Fe	      4.31673      4.16174      0.12177        -0.003446      0.212245     -0.017099
O	      2.09700      2.12840      2.15611         0.050919      0.091881      0.208217
O	      4.32865      4.31438      2.10483        -0.158953      0.482370      0.991929
O	      4.44137      2.07283      4.22067         0.429020      0.013723     -0.053522
O	      6.55538      4.15065      4.23666        -0.069431     -0.370751      0.098582
O	      6.47792      2.16388      6.28454        -0.093440      0.467713     -0.494088
O	      8.75878      4.23652      6.33211        -0.701820      0.180847     -0.338937
O	      2.14087      4.34635      4.37579         0.046557      0.342777      0.112481
O	      4.15688      6.40713      4.19983        -0.352283      0.012756      0.150319
O	      4.08117      4.25935      6.39695         0.082735      0.179086     -0.033088
O	      6.45829      6.39798      6.47538        -0.012691      0.041656     -0.070606
O	      6.47807      4.36117      8.45108        -0.016670      0.055969      0.012639
O	      8.55779      6.39679      8.64477        -0.014206      0.010634      0.273722
O	      2.11390      6.33717      6.28628         0.502606     -0.289726     -0.544548
O	      4.48824      8.48284      6.41294         0.796248     -0.769468     -0.121407
O	      4.55396      6.33803      8.56811        -0.003725     -0.062679     -0.069838
O	      6.50527      8.43791      8.52980         0.116610     -0.057551      0.292449
O	      6.52856      6.39187     10.53992         0.148489      0.174898     -0.345215
O	      8.49388      8.41385     10.65507        -0.311194     -0.261244     -0.153539
