# total energy = -253.54848047 eV
 
CRYSTAL
PRIMVEC
-0.009440 6.344500 6.486159 
6.373145 -0.002164 6.478351 
4.248069 4.223923 -0.000513 
PRIMCOORD
36 1
Li	      4.22062     10.52624      6.46261         0.037401     -0.044404      0.028834
Li	      8.48451      2.16103      6.54035        -0.003961     -0.011436      0.112329
Li	      4.16028      2.26594      2.05753        -0.036172     -0.007497     -0.132994
Li	      8.52622      4.17714      4.44778         0.027388     -0.022746      0.078832
Li	      4.25417      6.23110      2.12862         0.058403     -0.032885      0.012903
Li	      2.33219      4.16476      2.09344         0.051675     -0.023062     -0.017947
Li	      4.26198      4.20157      4.16996        -0.052021      0.000335     -0.036619
Li	     10.58473      8.52948     10.89244         0.011373     -0.028114      0.051383
Li	      8.42895      6.34046     10.84946         0.020985     -0.024019      0.047801
Sc	      2.11836      2.08026      4.20139        -0.118088      0.284095     -0.184582
Sc	      6.32724      6.38877      8.82348         0.020575      0.022620      0.093994
Ti	      4.16993      6.34717      6.36993        -0.289374      0.219820     -0.446188
Ti	      4.41392      2.02255      6.41123         0.180350     -0.306069     -0.167681
Ti	      2.10517      4.29456      6.34347        -0.135313      0.275007     -0.440721
Ti	      8.56459      8.42162      8.81058         0.066025     -0.063508      0.621009
V	      6.26026      4.23278      2.17023        -0.048416      0.072837     -0.182231
Co	      6.38987      4.20006      6.44149         0.211180     -0.103294     -0.101922
Cu	      6.42308      2.04177      4.46842         0.075577     -0.072265      0.181161
O	      2.15147      2.02161      2.18264        -0.006891      0.035903      0.049892
O	      4.34978      4.19183      2.17006         0.029082      0.048523     -0.007004
O	      4.14775      2.14455      4.53595         0.053326     -0.052533      0.253613
O	      6.37335      4.26181      4.28801         0.007931     -0.171462      0.303441
O	      6.26371      2.13656      6.58867        -0.262037      0.089399     -0.008629
O	      8.46943      4.37738      6.52889        -0.034787      0.312518     -0.028619
O	      2.12649      4.21460      4.46429        -0.041711     -0.068608      0.301658
O	      4.26024      6.32828      4.50295         0.078806     -0.013018      0.317976
O	      4.18644      4.23810      6.52949         0.186875     -0.183303      0.111930
O	      6.31556      6.42085      6.48907         0.036252     -0.157409      0.009950
O	      6.20946      4.30293      8.55925        -0.151622      0.000162     -0.127865
O	      8.41516      6.48123      8.49457         0.020132      0.116950     -0.058961
O	      2.16422      6.30189      6.51293        -0.011223      0.021922      0.066561
O	      4.35976      8.33074      6.51128         0.054723     -0.119729     -0.034149
O	      4.20107      6.21456      8.51075         0.043866     -0.070769      0.018011
O	      6.48284      8.50454      8.43408         0.039518     -0.080158     -0.101233
O	      6.35505      6.30650     10.75922        -0.045739      0.124165      0.022526
O	      8.54510      8.43434     10.63438        -0.074087      0.032033     -0.606460
