# total energy = -251.88693640 eV
 
CRYSTAL
PRIMVEC
-0.034115 6.449062 6.331924 
6.354788 -0.024240 6.321573 
4.207786 4.263329 0.012862 
PRIMCOORD
36 1
Li	      4.26437      2.09333      2.18890         0.018904     -0.028258      0.036985
Li	      6.29762      8.52728     10.50636        -0.020865      0.027855     -0.066686
Li	      6.32379      6.32346      4.27976         0.045026     -0.066073      0.019690
Li	      4.26412      4.29224      4.25205         0.020850      0.043368      0.027643
Li	      6.20975      4.32132      6.35029        -0.017909      0.032009      0.026898
Li	      4.16916      8.51719      4.24618        -0.010900     -0.028809     -0.052964
Li	      4.25548      6.37328      6.30782         0.031993     -0.016695     -0.030978
Li	      4.18475      4.37351      8.38835        -0.012306     -0.010110     -0.017252
Li	      6.23941      6.42684      8.42638        -0.032013      0.043563     -0.050434
Sc	      8.49651     10.61577     10.59323        -0.080833      0.051736      0.026268
Sc	      4.22410      2.26422      6.25343        -0.048204     -0.028931     -0.005494
Ti	      6.40275     10.58903      8.46102         0.070811     -0.378899      0.134511
Ti	      4.24461      6.40656      2.17059        -0.091511     -0.020118      0.126680
Ti	      2.06997      4.22889      2.10298        -0.123870      0.098472     -0.056102
Ti	      6.19229      8.51365      6.25110        -0.165225     -0.235759      0.118169
V	      8.38676      6.49035     10.56176         0.074760     -0.013113     -0.112432
Cu	      6.30364      6.38483     12.54447        -0.082088     -0.046560     -0.115474
Cu	      8.52266      8.56054     12.56239         0.047905     -0.028247     -0.116899
O	      2.02292      2.21474      2.22584        -0.001179     -0.008180      0.048418
O	      4.17355      4.39466      2.19910         0.170536      0.082210      0.006932
O	      4.25855      1.98898      4.27767         0.023148     -0.019905      0.012642
O	      6.37425      4.22665      4.03014         0.008775      0.006799     -0.163495
O	      6.27016      2.24167      6.55513         0.082444      0.005589      0.058079
O	      8.34875      4.33839      6.49265         0.008589      0.075118      0.119401
O	      2.08812      4.40116      4.22541        -0.012312      0.033393      0.022644
O	      4.05925      6.43464      4.10263         0.008991      0.030787     -0.092549
O	      4.09797      4.27125      6.33340        -0.046947      0.013178     -0.050254
O	      6.32719      6.58459      6.36212        -0.003420      0.145701     -0.048837
O	      6.52826      4.13934      8.48478         0.089898     -0.077369     -0.026135
O	      8.52018      6.24624      8.47360         0.073448     -0.023362     -0.014540
O	      2.15054      6.35080      6.41323         0.031115     -0.022691      0.065841
O	      4.35077      8.50174      6.34130         0.159889     -0.007219      0.035851
O	      4.07278      6.42353      8.48234        -0.214674      0.014581     -0.015189
O	      6.27346      8.72130      8.32340        -0.008235      0.353247     -0.030662
O	      6.37102      6.41490     10.43334         0.013165     -0.014366      0.103921
O	      8.41629      8.48298     10.47445        -0.007756      0.017058      0.075804
