# total energy = -249.94975939 eV
 
CRYSTAL
PRIMVEC
0.004601 6.313289 6.325504 
6.376789 0.008876 6.321114 
4.244702 4.199574 0.012349 
PRIMCOORD
36 1
Li	      4.25566      2.08779      2.17201         0.020617      0.004089      0.030364
Li	      4.31298      6.30502     10.46359         0.040501      0.036728     -0.019524
Li	     10.51471      6.49560      8.53363        -0.047725     -0.037851      0.019864
Li	      8.27685      4.30764      8.54279        -0.072714      0.015045     -0.003887
Li	      4.19144      4.22452      4.13012        -0.052434     -0.032241     -0.067168
Li	      6.36081      4.24202      6.54208         0.021058      0.030804      0.026986
Li	      6.41780      4.19668     10.35108        -0.003186      0.004097      0.057684
Li	      8.51804      6.29076     10.32685        -0.042403     -0.037811      0.006631
Li	      6.40533      6.11650      8.55483         0.040883      0.055418      0.014806
Sc	     10.56839      4.19736      6.33628        -0.013785     -0.032091     -0.013349
Sc	      2.16409      4.17251      6.28291         0.065936      0.072123     -0.003811
Ti	      2.10354      2.11634      0.05598         0.053012      0.115249     -0.016283
Ti	      2.13889      0.07012      2.17417        -0.036568      0.021021     -0.008503
Ti	      6.35588      8.43837     10.43956         0.012595     -0.122716     -0.031232
Ti	      6.26843      6.26900      4.13613        -0.172887      0.051972     -0.101702
V	      8.51780      6.27804      6.41087        -0.088135      0.008184      0.011891
Ni	      4.30608      6.26184      6.32533        -0.080221     -0.089844     -0.019247
Ni	      4.36832      4.19837      8.47800        -0.064792     -0.023442      0.024631
O	      2.15702      2.13336      2.10069         0.013836      0.000037      0.054895
O	      4.47291      4.18874      2.04792         0.248913     -0.007616      0.059339
O	      4.32552      2.10986      4.30967         0.109145      0.001947     -0.064925
O	      6.39958      4.21089      4.19499         0.002086      0.032993     -0.118225
O	      6.46048      2.10026      6.26276        -0.064284      0.092180      0.031388
O	      8.52168      4.19266      6.36605         0.034257     -0.197774     -0.006179
O	      2.15314      4.06682      4.25270        -0.019216     -0.054611     -0.002454
O	      4.42529      6.25633      4.27826         0.229502     -0.013999     -0.180396
O	      4.21598      4.13682      6.35376        -0.077603      0.038009     -0.027058
O	      6.40412      6.31643      6.21353         0.185620     -0.128675      0.007949
O	      6.32264      4.22609      8.47426         0.093144     -0.000991      0.023631
O	      8.51712      6.33226      8.34241        -0.019071     -0.087917      0.032042
O	      2.13493      6.34314      6.31128        -0.026544      0.042814      0.037264
O	      4.14093      8.40090      6.32147        -0.032817      0.024144     -0.023678
O	      4.10813      6.29113      8.34739        -0.183041      0.070404      0.101703
O	      6.37836      8.45080      8.48808        -0.015717      0.007156      0.130450
O	      6.37604      6.50494     10.57087        -0.012083      0.125815     -0.013012
O	      8.33739      8.46608     10.67967        -0.045881      0.017350      0.049115
