# total energy = -223.50726226 eV
 
CRYSTAL
PRIMVEC
0.000136 6.365828 6.327023 
6.285408 -0.017281 6.344619 
4.178024 4.243021 0.000616 
PRIMCOORD
36 1
Li	      0.13406      6.28027      6.19033         0.015053      0.018280      0.011365
Li	      2.18143      8.34241      6.41821         0.024240     -0.002868      0.048415
Li	      2.07687      6.29090      8.31008         0.012064     -0.041626     -0.137992
Li	      6.34965      8.36513     10.52460         0.080569     -0.119546     -0.080731
Li	      2.11328      4.17354      2.15592         0.026394     -0.009266     -0.005004
Li	      6.29688      4.38887     10.65706        -0.054519      0.016610      0.002954
Li	      1.94793      6.34383      4.35141        -0.016442      0.089117      0.024778
Li	      2.05270      4.41593      6.34075        -0.009503      0.127277      0.094505
Li	      6.36130      6.41742      8.48489        -0.057376      0.038527      0.071251
Sc	      4.31580      6.30302     10.48168         0.290015     -0.240230     -0.075100
Sc	      4.15565      6.26850      2.11993         0.007771     -0.128006     -0.137864
Sc	      2.11213      2.25747      4.25671        -0.168839     -0.018325     -0.168250
Ti	      6.34193      4.21050      6.36494         0.141459     -0.266309      0.488111
Co	      4.18753      4.24718      4.23950        -0.193911      0.005316     -0.224593
Co	      8.25526      8.47536      8.44313         0.196711      0.440250     -0.092894
Cu	      8.36942      6.35356      6.37352        -0.012370     -0.041393      0.045024
Cu	      4.05949      6.43257      6.36286        -0.030976     -0.100380     -0.017444
Ni	      4.18386      2.19688      2.03809         0.110016     -0.141565     -0.141358
O	      2.08822      6.40923      6.33112         0.161141      0.092946     -0.040677
O	      4.19521      8.33031      6.39208        -0.001872      0.100728     -0.070190
O	      2.05465      2.14687      2.18609        -0.036419      0.013840      0.160745
O	      4.17541      4.20639      2.29557         0.057770      0.126985     -0.961299
O	      4.21321      2.21975      4.21091        -0.000708      0.009286      0.167309
O	      6.18949      4.28527      4.37459         0.167505     -0.026181      0.207856
O	      6.14840      2.22052      6.37484         0.113559      0.145734     -0.058464
O	      8.20550      4.10464      6.29166        -0.187316      0.010932      0.017996
O	      2.25109      4.25311      4.23012        -0.168471     -0.006262      0.171428
O	      4.20234      6.19596      4.23804         0.029393      0.047597     -0.068661
O	      4.23253      4.43482      6.29944        -0.055779     -0.026006      0.859676
O	      6.38535      6.19955      6.34741        -0.155714      0.169045      0.015373
O	      6.10832      4.16469      8.32603         0.031145     -0.019477     -0.364978
O	      8.34317      6.55920      8.35442        -0.092053     -0.143267     -0.026901
O	      4.16896      6.24298      8.41322        -0.024714     -0.010947      0.192053
O	      6.43334      8.48924      8.40618        -0.075669     -0.085629     -0.032480
O	      6.23696      6.33220     10.59474        -0.120636      0.022010      0.008847
O	      8.37935      8.49186     10.28446        -0.001518     -0.047195      0.117192
