# total energy = -227.41887820 eV
 
CRYSTAL
PRIMVEC
-0.047489 6.552345 6.369198 
6.106678 0.000107 6.321702 
4.070282 4.335612 0.000388 
PRIMCOORD
36 1
Li	     10.11343      4.42012      6.45995         0.063461      0.003967      0.032886
Li	      2.04155      8.66862      6.46517        -0.028219     -0.034122     -0.007030
Li	      2.04778      0.21231      2.07191        -0.021168     -0.010532      0.000747
Li	      3.93948      2.07032      2.14085        -0.035269      0.013830      0.006504
Li	      8.06920      4.40693      4.27997         0.002068     -0.010248      0.010657
Li	      1.99383      4.22280      2.05641        -0.004084     -0.046865     -0.006781
Li	      2.05025      2.08750      4.08864        -0.020292      0.017217      0.019692
Li	      6.07767      4.30289      6.29177        -0.002679     -0.045009     -0.023722
Li	      4.11764      4.31469      8.43109         0.020137     -0.009714     -0.027728
Sc	      6.16867      8.78457     10.59649        -0.018400      0.117570     -0.057738
Sc	      4.08413      4.37923      4.14527        -0.018222     -0.072485      0.022549
Sc	      6.07659      8.79849      6.45710         0.005806     -0.003792     -0.036725
Ti	      5.98353      6.45971      8.51157        -0.330939     -0.022662     -0.147553
Co	      8.13853      6.21119      6.32765        -0.065864      0.008753     -0.087381
Co	      4.01980      8.69105      4.27173         0.113881     -0.069480      0.073950
Co	      4.05867      6.53582      6.33119        -0.011740     -0.020657      0.066694
Cu	      6.11289      2.14106      8.34209        -0.104154      0.001686      0.052889
Ni	      2.02482      6.56280      4.25264        -0.000246     -0.015365      0.015673
O	      1.85754      2.20015      2.09176         0.078251      0.009496     -0.021709
O	      4.04136      4.43684      2.11186        -0.050180     -0.016440     -0.017568
O	      4.06768      2.27665      4.30466        -0.009510      0.001829      0.015422
O	      6.10667      4.26429      4.16496         0.032738     -0.025281     -0.011593
O	      6.01986      2.21375      6.32464         0.018456     -0.001705     -0.146203
O	      8.09807      4.45450      6.30554         0.018261     -0.006702      0.007887
O	      1.88981      4.45321      4.31605        -0.056716     -0.038123      0.007407
O	      4.05553      6.51253      4.37923         0.155791      0.082596      0.086270
O	      4.06050      4.56133      6.31084         0.055114      0.065337      0.023782
O	      6.08671      6.58414      6.50162         0.038008     -0.011385      0.121621
O	      6.09420      4.50245      8.65157         0.021291      0.106537      0.036949
O	      8.19041      6.57400      8.37598         0.056268     -0.010778     -0.099473
O	      2.11782      6.50935      6.34036        -0.040200      0.003279      0.101405
O	      4.02027      8.49939      6.21565        -0.025633      0.010976     -0.030517
O	      4.11965      6.53584      8.30382         0.243945      0.016324      0.086067
O	      6.05654      8.50046      8.50433         0.042219     -0.075759      0.022217
O	      6.07195      6.60502     10.45078        -0.083887     -0.011787     -0.067066
O	      8.23337      8.64649     10.57734        -0.038291      0.099494     -0.022480
