# total energy = -253.83478980 eV
 
CRYSTAL
PRIMVEC
0.004852 6.461156 6.250252 
6.480564 0.003258 6.251293 
4.307364 4.295299 0.014832 
PRIMCOORD
36 1
Li	      0.02501      6.35905      6.14521         0.024331     -0.022749      0.017532
Li	      2.25829      8.56904      6.15319        -0.014238     -0.004607      0.005897
Li	      6.42483      6.55328      4.26997        -0.033394      0.015528     -0.035296
Li	      8.54295      6.50814      6.32136         0.005345      0.010536      0.028894
Li	      6.41160      4.44706     10.45476        -0.047861      0.022941     -0.071664
Li	      2.17947      6.36255      4.23992         0.017244     -0.082009     -0.008338
Li	      6.46589      8.52051      6.22810         0.014594     -0.000830     -0.017268
Li	      8.60210      8.56952      8.38360         0.005737     -0.014570      0.000310
Li	      6.56261      6.43978      8.35273         0.043775     -0.028376      0.043746
Sc	      4.32318      8.61852      8.23598        -0.067835      0.127774     -0.041907
Sc	      6.57721      8.50037     10.50205         0.071021     -0.062679      0.104879
Sc	      6.44328      4.41024      6.32980         0.006860     -0.060374      0.088763
V	      2.16369      6.47556      8.23262        -0.155135      0.071586     -0.096723
V	     10.74819      6.47824      8.34017         0.039720     -0.041963      0.075667
V	      8.62777      4.35602      8.31485         0.051502     -0.088175      0.069421
V	      4.24414      4.25915      4.20935        -0.030108      0.027867      0.007279
Cr	      8.66888     10.74251     10.46656         0.074506      0.012379      0.069815
Cr	      4.32486      6.47749      6.21292        -0.020460     -0.083073     -0.121398
O	      2.09798      2.14702      2.08446         0.029066     -0.084555     -0.011264
O	      4.32074      4.30686      2.06688         0.004349     -0.052837      0.008897
O	      4.37227      2.15286      4.16917        -0.005503     -0.047249     -0.040876
O	      6.47160      4.25949      4.13922         0.046498      0.012413     -0.033999
O	      6.46522      2.23414      6.32840        -0.015719      0.020543     -0.074608
O	      8.56947      4.32794      6.24805        -0.035943      0.023550     -0.052277
O	      2.31607      4.24177      4.03979        -0.003055      0.038878      0.077085
O	      4.32805      6.24410      4.16865         0.022504      0.074495      0.009295
O	      4.33980      4.41569      6.25047         0.009241     -0.010071      0.042514
O	      6.34710      6.43384      6.29089         0.027693      0.041899      0.039670
O	      6.56574      4.24666      8.37113        -0.042872      0.023133     -0.004729
O	      8.76392      6.32101      8.36596        -0.038917      0.098404      0.026148
O	      2.29242      6.47343      6.31165         0.009736     -0.011467      0.007996
O	      4.33232      8.49042      6.23989         0.000953      0.025717      0.012735
O	      4.23602      6.53622      8.35433         0.033812      0.005145      0.004671
O	      6.39873      8.75532      8.40061         0.042617      0.004534     -0.044995
O	      6.34452      6.49551     10.42517        -0.018427      0.029871     -0.050446
O	      8.58973      8.77195     10.41993        -0.051634      0.008392     -0.035426
