# total energy = -245.96853243 eV
 
CRYSTAL
PRIMVEC
-0.000977 6.241445 6.453212 
6.391388 0.027631 6.424395 
4.293916 4.175539 -0.014540 
PRIMCOORD
36 1
Li	      6.38152      6.33338     12.79547         0.034165      0.052750      0.001795
Li	      4.30598      6.27158     10.71988         0.004936     -0.005157     -0.047390
Li	      6.38927      2.14094      8.57097         0.029063      0.009979     -0.025317
Li	      6.42666      6.25007      4.32408         0.035811     -0.012460     -0.006929
Li	      4.29964      2.06070      6.35781         0.045507     -0.019686     -0.116783
Li	      8.49343      6.34430     10.69018        -0.029042      0.033286     -0.031520
Li	      4.28640      6.25239      6.43255         0.010768     -0.034307      0.034575
Li	      4.26484      4.20599      8.61650        -0.027308      0.029971      0.013292
Li	      6.40982      6.21119      8.63728        -0.057450      0.030122     -0.012680
Sc	      4.28513      8.27327      8.65727         0.074761     -0.146013      0.038902
Sc	      4.30831      4.30950      4.29108         0.006716     -0.029149      0.042672
Sc	      6.43096      8.25739      6.40745         0.034816     -0.039358      0.144238
V	      8.52721      8.32873     12.84948        -0.040480     -0.008581     -0.037347
V	      8.50992      4.36536      8.56265        -0.048580      0.046079     -0.061984
V	      6.36197      4.23282      6.44488        -0.021043     -0.069348     -0.034092
V	     10.61686      8.37655     10.68574         0.020201     -0.140088     -0.014056
Fe	      2.23044      6.23670      8.61701        -0.081739     -0.026247      0.113432
Co	      6.44082      8.20995     10.74568        -0.031901     -0.131036     -0.062035
O	      2.17983      2.11290      2.07284        -0.003044      0.020626      0.055642
O	      4.19754      4.16087      2.17925         0.010517     -0.002548     -0.008790
O	      4.30902      2.15012      4.22710        -0.051965     -0.000008      0.006060
O	      6.38147      4.18319      4.22966        -0.032685     -0.030520      0.064581
O	      6.48305      2.20529      6.37403        -0.044166      0.040685     -0.035369
O	      8.42490      4.13563      6.58032         0.001129     -0.082459      0.039028
O	      2.09481      4.16689      4.22881         0.026159      0.042814     -0.004497
O	      4.28147      6.33410      4.26172        -0.009258     -0.062355      0.015889
O	      4.27664      4.17201      6.38801        -0.040766      0.018926     -0.009359
O	      6.41271      6.22814      6.43421         0.001829      0.040217     -0.032858
O	      6.54561      4.18033      8.55975         0.044699      0.041589     -0.005351
O	      8.58428      6.10035      8.55173        -0.049051     -0.000089      0.030630
O	      2.08203      6.27024      6.60642         0.001846      0.049836     -0.094300
O	      4.26237      8.32865      6.42496         0.075946      0.017431     -0.016718
O	      4.14684      6.24312      8.61799         0.104995      0.053749      0.007711
O	      6.39691      8.38748      8.51422        -0.043576     -0.043717      0.012492
O	      6.39943      6.18981     10.71108         0.044282      0.357876      0.014710
O	      8.62019      8.33704     10.82178         0.003907     -0.002811      0.021728
