# total energy = -92.25522930 eV
 
CRYSTAL
PRIMVEC
-2.144144 4.399781 -2.145553 
2.047377 4.302054 2.046726 
2.106858 0.050609 -6.300079 
PRIMCOORD
16 1
Li	      2.08035      6.74876     -4.39125        -0.164886     -0.188232      0.146970
Li	      0.00545      4.48393     -0.22777        -0.167351      0.017347      0.504666
Li	     -0.01473      2.26563     -2.20131         0.125184      0.174275     -0.134098
Li	      2.12584      4.48364     -2.23000        -0.010738     -0.094816     -0.580362
Mn	      0.09237      0.13096     -0.09461        -2.178355     -0.088240      1.238836
Mn	     -0.04025      6.74803     -2.27315         0.595524     -1.197285     -0.210861
Ni	      0.00152      4.53291     -4.42333         0.827765      0.268679      0.281348
Ni	      2.09610      2.26753     -4.30580        -0.284768      1.034065      0.516826
O	     -0.02992      4.62845     -6.62866         0.340463     -0.050329      0.948310
O	     -0.04989      2.49258     -4.28372        -0.833751     -0.199185     -0.098412
O	      2.20887      4.43693     -4.38411         0.042846     -0.256669     -0.137160
O	      2.11169      4.27745      0.03791        -0.035000      0.172388     -1.110912
O	      2.06314      2.30397     -2.16490        -0.051411     -0.488345      0.886609
O	     -0.07538      6.90210     -0.16991         0.481547     -0.482744     -0.989549
O	     -0.13818      4.68763     -2.21891         0.605946      0.764645     -0.327130
O	      0.06567      2.06080     -0.02120         0.706985      0.614446     -0.935082
