# total energy = -91.56313163 eV
 
CRYSTAL
PRIMVEC
-2.164961 4.442497 -2.166383 
2.067255 4.343822 2.066597 
2.127313 0.051100 -6.361245 
PRIMCOORD
16 1
Li	      2.12094      6.88044     -4.47693        -0.197231     -0.215738      0.173160
Li	      0.02622      4.57192     -0.29398        -0.214757      0.025470      0.639409
Li	     -0.01501      2.30983     -2.24426         0.160397      0.230964     -0.179128
Li	      2.16732      4.57113     -2.27352        -0.003200     -0.130817     -0.741503
Mn	      0.13490      0.17619     -0.13816        -2.738142     -0.120101      1.694033
Mn	     -0.04103      6.87970     -2.31750         0.705269     -1.496408     -0.232717
Ni	      0.00155      4.62135     -4.50964         0.996124      0.275268      0.367914
Ni	      2.13700      2.31178     -4.38981        -0.333076      1.262751      0.677450
O	     -0.03050      4.71876     -6.75800         0.422381     -0.019119      1.281655
O	     -0.03080      2.58339     -4.34723        -0.912276     -0.206205     -0.127299
O	      2.25197      4.52350     -4.46965        -0.051784     -0.336704     -0.181327
O	      2.15289      4.36091      0.03865        -0.000355      0.289796     -1.526236
O	      2.08238      2.39205     -2.22818        -0.076871     -0.626915      0.937279
O	     -0.07685      7.03677     -0.17323         0.586404     -0.621537     -1.164243
O	     -0.14087      4.77909     -2.26220         0.835810      0.900030     -0.423199
O	      0.06695      2.10100     -0.02161         0.821305      0.789267     -1.195249
