# total energy = -238.82254036 eV
 
CRYSTAL
PRIMVEC
-0.007622 6.250996 6.332647 
6.315756 0.032556 6.292605 
4.249367 4.179075 -0.016534 
PRIMCOORD
36 1
Li	      6.28146      4.08516      2.27838         0.032194     -0.033043     -0.035329
Li	      4.10877      0.15416      4.16716         0.070494     -0.141693      0.089506
Li	      6.25217      2.21321      4.13319         0.072264     -0.033611      0.051294
Li	      8.40962      4.22779      8.35933        -0.041727      0.074250     -0.042967
Li	      4.32533      4.04772      4.35631         0.011971      0.127523      0.047870
Li	      4.15822      2.13665      6.27000        -0.079468     -0.075382      0.165241
Li	      6.20383      4.23373      6.19697         0.041836      0.035308      0.080799
Li	      6.46378      8.27896      6.36066        -0.021988     -0.064886     -0.042877
Li	      8.34843      8.30231      8.39301         0.111576     -0.083533      0.046411
Sc	      8.39883      2.25653      6.27677        -0.041035      0.121136     -0.150688
Sc	     10.44128      6.24077      8.33514        -0.268507      0.262275      0.036147
Sc	      6.34714      4.29005     10.44983        -0.084446      0.277017     -0.230336
Sc	      4.24726      6.08775      6.40187         0.293796     -0.006614     -0.104085
Cr	      2.22023      2.04774      4.19227        -0.290344      0.068332      0.473343
Cr	      2.12043      6.23000      4.22942        -0.135063      0.063158     -0.233818
Co	      0.01752      6.26127      6.33033         0.066252      0.013268     -0.398269
Co	      4.26186      8.36500      8.42032         0.207276     -0.290121      0.292513
Co	      6.33942      6.32751      8.36912         0.021807     -0.410676      0.041182
O	      2.14321      2.08480      2.14247         0.123264      0.001365     -0.037216
O	      4.27030      4.09590      1.89593         0.018498     -0.243578      0.171824
O	      4.14918      2.14410      3.98917         0.000149     -0.003702     -0.097806
O	      6.36258      4.30401      4.20464        -0.002704      0.009203     -0.078558
O	      6.34966      1.99795      6.33630        -0.057059     -0.016151     -0.103500
O	      8.68991      4.24320      6.24206        -0.001153     -0.035534     -0.047753
O	      2.07257      4.18401      4.22839         0.187312     -0.118195     -0.011227
O	      4.22310      6.28467      4.19510         0.158288     -0.120491      0.061288
O	      4.20062      4.18430      6.38016        -0.043732     -0.089805     -0.050755
O	      6.31433      6.25034      6.33808        -0.021191      0.032407     -1.425213
O	      6.32565      4.21506      8.42444        -0.016008     -0.316432     -0.027036
O	      8.36536      6.28088      8.51000         0.495916     -0.008179      0.092535
O	      2.07487      6.28759      6.24730        -0.024390     -0.033454      0.085148
O	      4.21807      8.43383      6.36530         0.011584      0.031889      0.100998
O	      4.39751      6.41743      8.44022        -0.433961      0.482928     -0.064235
O	      6.17414      8.21706      8.41033        -0.380856      0.519626      0.128733
O	      6.44956      6.33301     10.49780         0.037846     -0.036357      1.208186
O	      8.50748      8.27484     10.55735        -0.018692      0.041752      0.008649
