# total energy = -235.67617682 eV
 
CRYSTAL
PRIMVEC
-0.016865 6.246783 6.275962 
6.503374 0.003128 6.256271 
4.370173 4.185605 -0.032363 
PRIMCOORD
36 1
Li	      8.67929      8.31442     12.37754        -0.008318     -0.018428     -0.143485
Li	      4.32786      2.10538      2.09732         0.017672     -0.022039      0.007092
Li	      8.70229     10.38649     10.40854        -0.000085     -0.098892     -0.006813
Li	      6.49837      2.08853      4.18922         0.030558     -0.005021     -0.040257
Li	      6.49648      2.17022      8.40630        -0.019608     -0.024007     -0.032060
Li	      6.50137      6.30063      4.15808         0.039195     -0.046392      0.015618
Li	      4.37426      8.23294      4.18657        -0.086607      0.061771     -0.018254
Li	      8.75150      6.38632     10.45509         0.007031      0.136244     -0.009301
Li	      8.70086      8.36066      8.42380        -0.049790      0.012878      0.092064
Sc	      2.29010      6.28059      8.35718         0.025213     -0.045894      0.066737
Sc	      4.32520      4.23043      4.10832         0.096009     -0.075756     -0.060243
Sc	      4.34475      2.06694      6.21397         0.051519      0.001986      0.070078
Sc	      6.46243      6.29826      8.48856         0.003974      0.055789      0.130369
Cr	      6.48259      6.20267     12.47511        -0.180302      0.207513     -0.061098
Cr	      2.15572      4.07088      2.14385         0.002400      0.027419      0.013358
Fe	      6.54700      4.09119      6.19905         0.060208      0.067269     -0.024928
Cu	      4.33456      6.36190      6.20400        -0.077887     -0.008871      0.063679
Ni	      6.42874      8.35329      6.21566         0.107819     -0.075143     -0.052647
O	      8.69453      8.38655     10.37433        -0.001895     -0.025593      0.005791
O	      2.17470      2.18802      2.07934        -0.012081      0.054768      0.006924
O	      4.29212      4.19169      2.01183        -0.057692     -0.019543     -0.006212
O	      4.31355      2.14704      4.22290        -0.005378     -0.027366     -0.085195
O	      6.48032      4.19111      4.18176        -0.023872      0.044498     -0.090551
O	      6.45071      2.09772      6.25301         0.013876     -0.187992      0.021139
O	      8.71548      4.14591      6.36452         0.039059     -0.026098      0.044728
O	      2.20770      4.15239      4.03897        -0.059344      0.012237     -0.089482
O	      4.32366      6.26150      4.28073         0.025926      0.074457     -0.116372
O	      4.44380      4.17531      6.24801         0.052687      0.035725      0.056996
O	      6.62116      6.21232      6.29391        -0.031345     -0.079325     -0.044090
O	      6.66836      4.15829      8.22671         0.042807     -0.035660      0.082211
O	      8.60517      6.04545      8.31894         0.043470     -0.041231      0.047124
O	      1.95543      6.20310      6.30476        -0.005724      0.127515      0.015634
O	      4.40168      8.40740      6.20353        -0.068112     -0.062848      0.050847
O	      4.33385      6.29787      8.20906         0.027868     -0.019583      0.070751
O	      6.58616      8.35872      8.28064        -0.008835      0.059607      0.059142
O	      6.42013      6.25988     10.51259         0.009584     -0.033995     -0.039290
