# total energy = -244.30357870 eV
 
CRYSTAL
PRIMVEC
0.045968 6.442760 6.462699 
6.250123 0.078404 6.430601 
4.194369 4.301734 0.024662 
PRIMCOORD
36 1
Li	      0.12808      6.47617      6.51254        -0.032729     -0.005333      0.019580
Li	      2.18655      8.41063      6.56032        -0.031484      0.028548      0.049935
Li	      6.21110      4.33768      2.16312        -0.021763     -0.006900      0.072217
Li	      6.34052      8.61040     10.70630        -0.015149      0.003616      0.034422
Li	      4.23041      6.43916      2.19249         0.008802      0.038905     -0.013440
Li	      4.23626      4.34537      4.11458         0.031286     -0.015268      0.028268
Li	      6.26440      4.32493     10.62877        -0.002635     -0.009058     -0.126391
Li	      4.08769      6.61453      6.48674         0.027069      0.004353      0.012708
Li	      6.29856      6.51867      8.70162        -0.008330      0.014298      0.002583
Sc	      4.37025      6.44073     10.72532        -0.008817     -0.033296      0.059058
Sc	      4.26686      2.19567      6.43703        -0.073700     -0.103009     -0.000976
Sc	      6.26153      4.32636      6.46566         0.159198      0.082002     -0.014659
Sc	      6.16766      8.70365      6.49236        -0.076532     -0.031484      0.007602
Cr	      2.14789      4.27887      2.20079        -0.055670     -0.018679     -0.114289
Cr	      8.37578      6.53872     10.73811         0.038226      0.059810     -0.010653
Fe	      6.12693      6.41759      4.28651         0.152350      0.085621      0.001151
Fe	      4.17600      4.45662      8.62459        -0.015901     -0.064905      0.041759
Co	      4.18540      2.19901      2.19533        -0.038072     -0.037100     -0.054775
O	      2.22351      2.26144      2.27267         0.093341      0.013978     -0.043632
O	      4.11658      4.11991      2.18743         0.041173     -0.068562     -0.053810
O	      4.15188      2.13353      4.26289        -0.051406      0.014334     -0.012512
O	      6.32247      4.44529      4.36897        -0.003918     -0.056883      0.040341
O	      6.25604      2.30097      6.43637        -0.021270     -0.016603      0.045134
O	      8.35865      4.41774      6.52135        -0.030611      0.061202      0.025438
O	      2.09227      4.36147      4.24715         0.019390     -0.062688      0.009567
O	      4.20758      6.45620      4.26654        -0.166240     -0.002709     -0.011490
O	      4.17038      4.27902      6.63059        -0.019069      0.013261     -0.045897
O	      6.31685      6.52619      6.30787         0.046083     -0.009246      0.017900
O	      6.28206      4.39403      8.54373         0.014788     -0.010775     -0.028505
O	      8.38659      6.44900      8.62824         0.016123      0.040697      0.037692
O	      2.12817      6.42149      6.29618        -0.009314     -0.035015     -0.037565
O	      4.18623      8.59630      6.73886         0.042163      0.019564      0.075019
O	      4.21438      6.46444      8.66967        -0.024070      0.132653      0.028763
O	      6.28325      8.65534      8.57354        -0.041239      0.003545     -0.033779
O	      6.35790      6.50252     10.74994         0.073719     -0.011986     -0.006126
O	      8.41027      8.60598     10.60888        -0.015795     -0.016886     -0.000641
