# total energy = -242.64462800 eV
 
CRYSTAL
PRIMVEC
-0.009139 6.529218 6.321924 
6.232253 0.015408 6.296449 
4.180992 4.361523 -0.015036 
PRIMCOORD
36 1
Li	      2.11176      8.68051      6.34911         0.020962     -0.057789     -0.014644
Li	      2.18316      6.54983      8.38582        -0.013843     -0.008015      0.000746
Li	      8.19305      4.38679      4.20046         0.011197      0.032087      0.000854
Li	      2.08475      4.31581      2.07109         0.020044      0.027482     -0.002945
Li	      6.26429      6.49372      4.22322         0.004818     -0.024503      0.030535
Li	      6.32196      4.39693      6.18494         0.035738      0.038866     -0.030154
Li	      2.10488      4.37793      6.33552        -0.008897      0.016676      0.017559
Li	      4.07980      6.56272      6.41316        -0.035651      0.037924      0.004878
Li	      4.13980      4.34443      8.29609        -0.008311     -0.085072     -0.027210
Sc	      4.15507      4.31248      0.07845        -0.019376     -0.036468     -0.078218
Sc	      4.21057      4.32920      4.24702        -0.032073     -0.004263      0.056171
Sc	      2.12685      6.56188      4.25329        -0.079963     -0.006855      0.020697
Sc	      6.11994      6.53319      8.32491        -0.020716     -0.018245      0.024052
Mn	      4.19297      8.68177      4.27149        -0.045326      0.082397      0.036635
Cr	      6.27502      8.77657     10.49356         0.049363     -0.090751      0.027533
Fe	      0.19659      2.31488      2.05497        -0.181707      0.078614     -0.031550
Fe	      8.25509      6.52505      6.35717         0.099397      0.036569     -0.160997
Co	      4.11141      2.15430      2.09231        -0.060569     -0.108069     -0.027136
O	      2.09788      2.20249      2.08631         0.250030     -0.008700      0.022442
O	      4.14303      4.25705      2.10868         0.022047     -0.108896      0.041549
O	      4.23918      2.21738      4.09378         0.018753      0.038029      0.081925
O	      6.23007      4.19753      4.19126        -0.027005      0.033324     -0.035365
O	      6.22531      2.16350      6.33766        -0.003031      0.016133     -0.061958
O	      8.35809      4.56094      6.26602        -0.000639     -0.065645      0.015825
O	      1.96951      4.42991      4.23046         0.026050     -0.008531     -0.014706
O	      4.19982      6.45429      4.05577         0.025324     -0.022015      0.022910
O	      4.14544      4.18256      6.26983         0.010376      0.030427     -0.029275
O	      6.30090      6.49465      6.32927        -0.156262     -0.012445     -0.009302
O	      6.22969      4.34078      8.60104         0.002493      0.049565     -0.003288
O	      8.36470      6.58203      8.36494         0.078488     -0.010980      0.086921
O	      2.04526      6.53223      6.24653         0.011018      0.016064      0.034891
O	      4.13594      8.75853      6.26934         0.048156      0.037624     -0.011901
O	      4.12981      6.75400      8.38495        -0.022859      0.132859      0.027087
O	      6.08008      8.65254      8.50183        -0.032254     -0.011263     -0.020010
O	      6.26781      6.67257     10.50429         0.019228      0.008069     -0.016783
O	      8.37820      8.69430     10.48866        -0.004998     -0.024207      0.022230
