# total energy = -238.04929373 eV
 
CRYSTAL
PRIMVEC
-0.001059 6.410246 6.494170 
6.292773 0.031475 6.461471 
4.205468 4.262570 0.010600 
PRIMCOORD
36 1
Li	      4.24725      4.27642      0.18604        -0.020219     -0.003727      0.028948
Li	      6.15965      4.42127      2.19868         0.037776     -0.022218      0.012287
Li	      4.30526      6.20404      2.24443         0.007427      0.052433     -0.056221
Li	      2.23728      4.24239      2.25023        -0.053715     -0.016668     -0.024724
Li	      4.11512      4.40377      4.14849         0.016868      0.030304     -0.002563
Li	      8.35446      6.46143      6.52764         0.065427     -0.013744      0.022314
Li	      4.30953      8.44114      4.45582        -0.019936      0.008496      0.027320
Li	      2.17972      4.26736      6.36161         0.009252      0.027975      0.021839
Li	      4.12394      6.48119      6.37596        -0.046373      0.037402      0.006152
Sc	      4.10718      2.27364      2.08907         0.193790     -0.069383     -0.572812
Sc	      8.47318     10.62815     10.88383         0.067767     -0.062517      0.218542
Sc	      6.28976      2.14533      4.36353         0.111398     -0.110979      0.392451
Sc	      6.26502      4.32781      6.50141         0.095380     -0.306775      0.069379
Mn	      2.19319      6.34185      4.34381        -0.021998     -0.137184      0.217710
Mn	      4.18533      4.29290      8.57226        -0.022620      0.033325     -0.087547
Cr	      6.30682      6.42330      8.56764        -0.057354      0.054587      0.006896
Cu	      2.10356      2.07634      0.06779        -0.163078      0.108416      0.071380
Cu	      6.21387      6.51817      4.37143        -0.058327      0.085644     -0.053313
O	      2.10047      4.45825      4.33597         0.075458      0.029177     -0.002036
O	      4.07426      6.40373      4.31985         0.107693     -0.058807     -0.038391
O	      2.11046      2.16936      2.38405        -0.311271     -0.027410      0.240576
O	      4.24662      4.20183      2.15272        -0.033306      0.138067      0.216679
O	      4.29363      2.01017      4.26725        -0.348230      0.117183      0.006546
O	      6.38397      4.17377      4.39833        -0.146964      0.215382     -0.103756
O	      6.42242      2.16714      6.44040        -0.261678      0.094804     -0.224656
O	      8.37980      4.18947      6.44543        -0.030833      0.026739     -0.069150
O	      4.20714      4.23847      6.70266        -0.075960      0.022669     -0.043026
O	      6.31870      6.38770      6.51823        -0.008287      0.132629     -0.159852
O	      6.11055      4.42466      8.59395         0.055631     -0.117749     -0.040096
O	      8.30961      6.58968      8.70899         0.177174     -0.007480      0.088839
O	      2.06539      6.52822      6.24721         0.027360     -0.095638     -0.247512
O	      4.00366      8.52745      6.53089         0.417894     -0.004446      0.233605
O	      4.27391      6.29407      8.67448        -0.172214     -0.036421      0.012841
O	      6.38223      8.45754      8.63916         0.045901      0.064641      0.057848
O	      6.34766      6.45333     10.61810         0.230399     -0.079979     -0.026676
O	      8.38614      8.51740     10.55872         0.109768     -0.108747     -0.199825
