# total energy = -247.45193132 eV
 
CRYSTAL
PRIMVEC
-0.066595 6.307391 6.388970 
6.504785 -0.055409 6.379644 
4.323849 4.186401 -0.024705 
PRIMCOORD
36 1
Li	     10.66487      4.14161      6.28051        -0.034154     -0.012270      0.000519
Li	      4.32893      2.09693      2.27407        -0.007748     -0.018158     -0.000252
Li	      4.41557      0.14778      4.32177         0.051971      0.011513     -0.051256
Li	      6.28730      2.03010      4.46182        -0.047420      0.006678     -0.023777
Li	      8.70568      4.12344      8.29123         0.027602     -0.047653     -0.064002
Li	      2.35892      2.05010      4.38379         0.004984     -0.032429      0.033199
Li	      8.57534      6.15031      6.22553         0.005315     -0.038893      0.012726
Li	      6.66969      4.09105      6.17054        -0.025566      0.009431     -0.044224
Li	      6.50476      6.23362      8.53705         0.052129     -0.050140     -0.001432
Sc	      6.42754      4.16645      2.15646        -0.026821      0.100112      0.017901
Sc	      6.42365      2.03565      8.37205         0.097956      0.007452     -0.061550
Sc	      4.47439      6.34222      6.43228        -0.035606     -0.044997      0.072307
Sc	      8.52326      8.32181      8.54095         0.032339      0.080422     -0.000846
Mn	      8.55208      2.12613      6.30316        -0.030026     -0.034985      0.100207
Mn	      4.31666      4.04129      4.27142         0.046572      0.032617     -0.010226
Mn	      6.52742      4.19637     10.61965        -0.026222     -0.088646     -0.048044
Cr	      2.10294      6.26754      4.28223         0.060198      0.010825      0.063187
Co	      2.17473      4.18918      6.38665         0.031039      0.064472      0.052318
O	      2.08182      2.07820      1.89504         0.002323      0.044771     -0.040324
O	      4.34714      4.22757      2.13804        -0.064567     -0.035866     -0.052804
O	      4.30006      2.12487      4.25158        -0.020451     -0.040726     -0.004226
O	      6.24455      4.18515      4.20405        -0.070348     -0.007025     -0.001618
O	      6.43215      2.05029      6.39943        -0.064779     -0.021030     -0.012828
O	      8.64462      3.98898      6.27775         0.014359      0.010983     -0.018031
O	      2.30767      4.23962      4.42393         0.026482     -0.016649      0.062278
O	      4.19330      6.36656      4.26988        -0.033714      0.021553      0.012136
O	      4.15441      4.24343      6.45844        -0.075160     -0.003313      0.018523
O	      6.47400      6.43838      6.37903         0.027600      0.007798      0.010308
O	      6.35020      4.13136      8.67547         0.008416      0.031136      0.079406
O	      8.65897      6.24338      8.64622        -0.035527     -0.045194      0.022363
O	      2.21186      6.32334      6.33416         0.019731      0.007838     -0.060627
O	      4.51609      8.40216      6.19084         0.093631      0.061386     -0.008871
O	      4.16931      6.23671      8.49567         0.012368      0.033149      0.009753
O	      6.44570      8.39491      8.31508        -0.032205     -0.022991     -0.050667
O	      6.63031      6.09850     10.62493         0.007143      0.041855      0.017156
O	      8.56822      8.23971     10.70442         0.008157     -0.023028     -0.028682
