# total energy = -250.03347420 eV
 
CRYSTAL
PRIMVEC
0.008961 6.484574 6.364279 
6.468182 0.003699 6.369669 
4.285839 4.299975 0.028617 
PRIMCOORD
36 1
Li	      4.35592      8.53770      8.62404         0.019374     -0.038793      0.012737
Li	      4.36099      6.54768     10.58458         0.001821      0.027146      0.007069
Li	      6.42117      8.54997     10.60234        -0.051994     -0.054906     -0.006340
Li	      2.15718      4.32837      2.16076         0.049999      0.023279     -0.017743
Li	      4.32185      4.29633      4.28495        -0.027359      0.038338     -0.012118
Li	      6.40382      4.35026      6.27283        -0.058287      0.022340     -0.052832
Li	      8.53370      6.48180     10.59751        -0.012656     -0.062645     -0.001991
Li	      4.40601      6.43335      6.41649         0.025670     -0.041872      0.034757
Li	      6.37681      6.48325      8.56857        -0.000352     -0.040551      0.036306
Sc	      6.46637      4.31823      2.22225         0.000757     -0.069718      0.004051
Sc	      8.58620      6.41011      6.36001        -0.028987      0.005130     -0.008350
Sc	      6.41450      8.56997      6.41588        -0.018906      0.038030      0.025989
Sc	      4.36229      4.37743      8.55686        -0.080646      0.027854     -0.008376
Mn	      6.46706      6.48318     12.69460         0.048985     -0.022626      0.018637
Mn	      8.61224      8.68376     12.68963         0.022718     -0.026015     -0.009259
Mn	      2.17383      2.16953      4.22523         0.000867      0.054300      0.028011
Cr	      0.03837      4.31125      4.24341         0.038193     -0.009836      0.021505
Fe	     10.71588      6.48220      8.50618         0.134490      0.024225     -0.003589
O	      2.08179      2.15730      1.91947         0.036352      0.026021     -0.041712
O	      4.32920      4.44799      1.98667        -0.049302     -0.043977      0.018812
O	      4.13414      2.19139      4.26009         0.085563      0.025845      0.007544
O	      6.38789      4.54040      4.23448         0.000184     -0.038113      0.033579
O	      6.46475      2.24457      6.37262         0.068203      0.018944     -0.056198
O	      8.77467      4.30481      6.37355        -0.038123      0.071802     -0.020115
O	      2.07321      4.17277      4.26970         0.034249      0.037919     -0.004314
O	      4.46952      6.55242      4.14469        -0.024754     -0.019322      0.096612
O	      4.21350      4.25713      6.44873         0.049147      0.042674     -0.023372
O	      6.51166      6.50214      6.44289        -0.029232     -0.015875      0.041110
O	      6.44346      4.25468      8.60119         0.028015      0.067962     -0.035398
O	      8.73703      6.52148      8.50044        -0.098065     -0.008905      0.010455
O	      2.00594      6.45499      6.37641         0.005399     -0.046968     -0.011546
O	      4.29308      8.54081      6.31292        -0.077558     -0.018300     -0.014360
O	      4.25081      6.41775      8.51238         0.034024      0.019360      0.005937
O	      6.49461      8.69981      8.54157        -0.048057     -0.011663      0.012668
O	      6.50369      6.33773     10.75125        -0.006345      0.022942     -0.076221
O	      8.73373      8.59874     10.73489        -0.033388     -0.024029     -0.011947
