# total energy = -253.95776436 eV
 
CRYSTAL
PRIMVEC
0.051617 6.334087 6.524803 
6.499269 0.027318 6.549441 
4.347042 4.252094 0.004396 
PRIMCOORD
36 1
Li	      4.46391     10.50603      6.55241         0.125131      0.020410      0.020458
Li	      2.33806      6.23134      8.64941        -0.124030      0.065636      0.080074
Li	      4.50093      8.45639      8.63831         0.080589     -0.000175     -0.099533
Li	      4.32463      6.38297     10.73765        -0.044397     -0.092628     -0.050228
Li	      4.36043      4.23263      4.38699        -0.055143      0.123949     -0.046061
Li	      6.41885      4.33258      6.48296         0.033755     -0.117116     -0.083891
Li	      6.56904      8.52928      6.66328        -0.158665      0.037186     -0.059187
Li	      4.40614      6.23586      6.68792        -0.022766      0.187265     -0.189319
Li	      6.34493      6.40909      8.61852         0.097767      0.059896      0.120176
Sc	      8.79028      8.55357     13.07054         0.087823     -0.814265     -0.381809
Sc	      6.42484      2.21601      4.22832         0.442699     -0.243897      0.643291
Sc	      0.05573      2.05198      2.12829        -0.288568     -0.195403      0.275141
Sc	      2.24235      4.24937      2.17016        -0.060507      0.353803      0.809336
Sc	      6.55909      6.26241      4.46024        -0.522427      0.159584     -0.503030
Sc	      4.27987      2.19926      6.51384         0.344398     -0.287729      0.311797
Mn	      6.52447      4.31170     10.94709        -0.031533     -0.008599     -0.105135
V	      2.19650      6.29443      4.49842         0.123198      0.188857     -1.912987
Co	      4.36666      4.35296      8.62848        -0.374752      1.365544      0.263084
O	      2.12717      2.15671      2.13941         0.088492     -0.068451      0.202176
O	      4.25322      4.28151      2.17504         0.168821      0.163156     -0.042951
O	      4.33485      2.07357      4.42918        -0.115586      0.074918      0.336287
O	      6.47852      4.26351      4.35260         0.048958     -0.038505      0.012527
O	      6.52905      2.15085      6.57756        -0.335732      0.005065     -0.016344
O	      8.65250      4.26239      6.70556        -0.083945      0.436383     -0.360695
O	      2.20424      4.26042      4.29039         0.082105     -0.657444      0.119352
O	      4.29513      6.43796      4.26650         0.242245     -0.033443      0.156420
O	      4.40400      4.18017      6.55542        -0.142271      0.257556      1.070515
O	      6.58815      6.35810      6.44518         0.172883      0.025048      0.193393
O	      6.51136      4.26777      8.94218        -0.077062     -0.215587     -0.261218
O	      8.77574      6.43528      8.86370         0.071427      0.153743     -1.139249
O	      2.23300      6.34541      6.29255         0.171668      0.195583      2.472386
O	      4.31660      8.51125      6.33936         0.043116     -0.067296      0.136790
O	      4.38662      6.30456      8.76664        -0.088727     -1.627167     -0.499058
O	      6.57805      8.48249      8.81760         0.502200     -0.041969     -0.988616
O	      6.75045      6.31903     10.87950        -0.148477      0.181317      0.166782
O	      8.66075      8.40685     11.00789        -0.252683      0.454774     -0.650674
