# total energy = -249.62223270 eV
 
CRYSTAL
PRIMVEC
0.004134 6.454635 6.495044 
6.395311 0.008392 6.490744 
4.255477 4.292222 0.013617 
PRIMCOORD
36 1
Li	      4.20988      2.24197      2.41296         0.023141      0.038275      0.019869
Li	      4.10940      0.17221      4.30417        -0.003962      0.011652     -0.013381
Li	      6.31206      2.20768      4.36327         0.030639     -0.030051     -0.044164
Li	      4.24325      6.41673      2.32515        -0.018481     -0.025951     -0.039720
Li	      2.17268      4.28231      2.35291        -0.012158      0.044612     -0.011645
Li	      2.20331      2.10466      4.32396        -0.022688      0.004665      0.042439
Li	      4.22107      4.37641      4.21758        -0.008595      0.029595      0.006900
Li	      4.30721      8.42989      4.32948        -0.005700      0.018485      0.014092
Li	      4.27017      6.40716      6.30694         0.039129     -0.022295     -0.082213
Sc	      4.25449      4.33358      0.06092         0.009098     -0.040897     -0.072946
Sc	      6.35853      4.31505      2.38891         0.025529     -0.057477     -0.033598
Sc	      4.27047      2.18286      6.31842         0.030441     -0.002728     -0.029361
Sc	      2.12453      4.31299      6.39333        -0.079438      0.055649      0.023596
Sc	      8.60652      8.53443      8.77140        -0.080467      0.000011      0.098325
Sc	      6.37171      6.43079      8.76599        -0.011367      0.017756      0.094746
Ti	      2.19781      2.17111      0.07341         0.116197      0.001890      0.141408
Cu	      2.20108      6.40871      4.30997        -0.217259     -0.003192     -0.001459
Ni	      6.35004      4.32537      6.39898         0.043044      0.003467      0.007299
O	      4.05217      6.43191      4.31487         0.231957     -0.032196     -0.020026
O	      2.14929      2.12131      1.95427        -0.002542      0.011653     -0.188010
O	      4.31028      4.28704      2.09136        -0.012691      0.041445     -0.009955
O	      4.25616      2.12647      4.37172        -0.039217      0.075550      0.041610
O	      6.35856      4.34839      4.37307        -0.020487     -0.016130     -0.039717
O	      6.48598      2.14523      6.43094         0.034204      0.020494     -0.000412
O	      8.54497      4.15717      6.38570         0.006663     -0.049036     -0.023055
O	      2.12808      4.47745      4.37223         0.019722     -0.068147      0.007391
O	      4.21758      4.26447      6.54674        -0.018296      0.008102      0.009515
O	      6.38805      6.53623      6.48987         0.013520     -0.032931      0.020362
O	      6.36289      4.38081      8.51477         0.036805     -0.038510      0.042011
O	      8.45873      6.47797      8.46409         0.017292     -0.033375     -0.128445
O	      2.10633      6.52996      6.67237        -0.002175      0.073120      0.138701
O	      4.15543      8.67027      6.46934        -0.089371     -0.019608      0.027925
O	      4.28289      6.33063      8.80985         0.000453     -0.008819      0.013442
O	      6.44703      8.60805      8.60315        -0.015220     -0.009113      0.002414
O	      6.64658      6.45448     10.82799        -0.032207     -0.019097     -0.011813
O	      8.58283      8.34979     10.92869         0.014485      0.053130     -0.002126
