# total energy = -263.54407255 eV
 
CRYSTAL
PRIMVEC
0.016590 6.523390 6.594981 
6.288023 0.071494 6.539335 
4.236436 4.356932 0.003313 
PRIMCOORD
36 1
Li	      8.36154      4.33165      4.49195        -0.044148      0.003178     -0.030243
Li	      6.41882      8.78525     10.93515        -0.017450     -0.004958     -0.016480
Li	      8.36252      4.51378      8.66527         0.015737      0.044670     -0.039026
Li	      6.38748      6.51087      4.41349        -0.026463     -0.035525     -0.072575
Li	      8.31596      6.48073      6.59625         0.020431     -0.003068      0.026230
Li	      6.43797      4.48656      6.48435        -0.033762      0.017026     -0.017547
Li	      8.40186      6.66290     10.85775         0.025486      0.025314     -0.030595
Li	      2.17274      4.30591      6.57272         0.015255     -0.016457      0.036342
Li	      8.38458      8.65040      8.91922        -0.008134      0.006427      0.097770
Sc	      6.23140      0.15628      6.39854         0.011927     -0.017826      0.007180
Sc	      6.41064     10.81049      8.86533         0.006052     -0.008261     -0.019302
Sc	      4.17166      2.21272      2.22925        -0.010131     -0.030928     -0.020120
Sc	      6.17185      2.33284      8.69170         0.032945      0.037074     -0.014683
Sc	      6.31351      4.46083     10.87721         0.053841     -0.022530      0.072477
Sc	      4.28394      6.50696      6.52857        -0.015038     -0.002810      0.033814
Ti	      4.14220      4.25327      4.52666        -0.074524     -0.144387      0.200797
Mn	      8.31938      2.33704      6.42673         0.036008     -0.029790      0.030464
Cr	      6.39875      6.59058      8.76350        -0.047784      0.009719      0.005786
O	      2.09907      2.05666      2.19395        -0.025821      0.049459      0.016865
O	      4.24972      4.35537      2.17707        -0.019471      0.022641      0.052608
O	      4.16891      2.37521      4.28583         0.005136      0.213225      0.056021
O	      6.15768      4.37304      4.30051        -0.048578      0.021377     -0.000508
O	      6.24003      2.17387      6.65737        -0.078868      0.022947     -0.032120
O	      8.47696      4.42986      6.50311        -0.023259      0.074146      0.056453
O	      2.24370      4.36533      4.37050         0.137065      0.007457      0.014614
O	      4.25656      6.53276      4.39630         0.011185     -0.057315     -0.022478
O	      4.21170      4.44938      6.36607         0.009059     -0.082960     -0.288734
O	      6.29641      6.55654      6.77554         0.034128     -0.001333     -0.000056
O	      6.33881      4.44120      8.81805        -0.042342      0.061239     -0.005471
O	      8.38534      6.62133      8.76047         0.012948     -0.029000      0.016126
O	      2.14625      6.52371      6.72926        -0.013186     -0.036049     -0.033488
O	      4.29154      8.72237      6.57260         0.041656     -0.008958      0.009959
O	      4.27509      6.63227      8.70881         0.035348     -0.025645      0.014962
O	      6.29974      8.67500      8.80598         0.027471     -0.048509      0.003837
O	      6.36150      6.54248     10.90733        -0.029051      0.020391     -0.061564
O	      8.51877      8.78681     10.92961         0.026330     -0.029979     -0.047315
