# total energy = -260.74207689 eV
 
CRYSTAL
PRIMVEC
0.064547 6.380165 6.402015 
6.616841 -0.005655 6.470305 
4.415822 4.303537 -0.008079 
PRIMCOORD
36 1
Li	     10.96962      4.34734      6.54275        -0.045095     -0.034736      0.017778
Li	      8.73678      2.21591      6.52585        -0.015152      0.006124      0.032624
Li	      4.34254      2.23103      2.25359        -0.008617     -0.000342      0.014921
Li	      6.59720      2.19524      4.31869        -0.058273     -0.003437      0.025476
Li	      0.11541      2.08282      2.04653         0.022509     -0.010439      0.026512
Li	      2.28364      4.16770      2.13746        -0.028871     -0.035956      0.016211
Li	      2.35150      2.12500      4.15784         0.066771      0.005057      0.005683
Li	      4.37196      4.21549      4.21558        -0.071936      0.000821      0.009687
Li	      8.84469      8.57928      8.62140         0.005051     -0.015791     -0.020928
Sc	      4.58793      2.07759      6.42307         0.001404      0.020325      0.041050
Sc	      6.66896      4.21845     10.67604         0.041457     -0.039317      0.000787
Sc	      8.86294      6.47353     10.65547         0.037229      0.002456     -0.034438
Sc	      6.65017      8.57718      6.42489         0.019034     -0.080086     -0.078444
Sc	      4.44936      6.39430      6.45013         0.074849     -0.003222     -0.045227
Sc	      6.64069      6.46405      8.61604         0.050796     -0.033046     -0.053063
Ti	      6.43513      4.41525      2.23644        -0.514796      0.208104      0.126539
Mn	      6.68498      4.17449      6.48844        -0.043678      0.024390     -0.028116
Fe	      8.76514      4.31410      4.30208         0.103378     -0.099141      0.024869
O	      2.20451      1.95829      2.14980        -0.004334     -0.304914      0.008253
O	      4.60462      4.27980      2.19157         0.493800      0.049943     -0.016850
O	      4.40077      1.98592      4.35966         0.021453      0.061444     -0.022528
O	      6.75504      4.25996      4.14776        -0.074403      0.025425     -0.171349
O	      6.56274      2.10626      6.47045         0.001786     -0.065751      0.001078
O	      8.84235      4.29726      6.32456         0.020379      0.012231      0.063142
O	      2.17506      4.35882      4.31703        -0.002057      0.000420     -0.030166
O	      4.30946      6.46533      4.35495        -0.021975     -0.020754     -0.029888
O	      4.39737      4.25303      6.37121        -0.060936      0.045526      0.005955
O	      6.62022      6.44824      6.49411        -0.015930      0.037033     -0.003107
O	      6.67631      4.35366      8.62810        -0.000874      0.002227      0.026699
O	      8.74578      6.43627      8.59991        -0.025779      0.041675      0.010033
O	      2.34261      6.35419      6.50160         0.015452      0.063003     -0.010231
O	      4.58183      8.46082      6.33547         0.010261      0.020997      0.014849
O	      4.48164      6.37489      8.58854        -0.012871      0.021237      0.013450
O	      6.68062      8.60167      8.49901         0.029742      0.045666      0.015747
O	      6.68208      6.37082     10.67871        -0.030694      0.016991      0.017168
O	      8.95921      8.57648     10.71183         0.020922      0.035836      0.025825
