# total energy = -246.66874388 eV
 
CRYSTAL
PRIMVEC
0.040741 6.507881 6.425040 
6.497719 0.043191 6.422755 
4.351214 4.356416 0.009466 
PRIMCOORD
36 1
Li	      8.53459      2.20937      6.53234         0.016493     -0.040379     -0.010322
Li	      6.26466      4.50203      2.13080         0.058051     -0.002798      0.019942
Li	      4.33055      2.29038      2.14850        -0.015114     -0.021894     -0.000029
Li	      8.53503      4.39795      4.41510        -0.017987      0.001981     -0.029261
Li	      6.49538      2.40830      4.33552         0.053399     -0.041200     -0.043062
Li	      0.19144      1.96423      2.02365        -0.077335      0.047094      0.018730
Li	      4.50076      4.24221      4.20020         0.001615     -0.058573     -0.026665
Li	      6.60965      4.20822      6.27718         0.040425     -0.048855      0.012854
Li	      4.29245      6.54690      6.44885        -0.023189      0.007510      0.034860
Sc	      2.29539      4.25887      2.07495        -0.017199     -0.024969      0.031837
Sc	      6.52551      6.34992      4.23419        -0.036194      0.001501      0.041812
Sc	      4.50141      2.19395      6.31158         0.004876     -0.004461     -0.054727
Sc	      4.33987      8.72454      4.44559        -0.024985     -0.008192      0.021947
Sc	      2.28975      6.50983      4.39559         0.036030      0.025059      0.013277
Sc	      4.34503      4.37282      8.51432         0.041980      0.071198      0.007999
V	      6.38155      6.61044      8.53467        -0.113539     -0.027871     -0.008810
Ni	      4.39162      4.39671      0.12490        -0.036789      0.002614     -0.171185
Ni	      2.18289      4.38740      6.43289         0.032403     -0.019265     -0.007915
O	      2.13796      2.23804      2.20035        -0.034018      0.006411     -0.006898
O	      4.28959      4.36946      2.15200        -0.017341     -0.020974      0.107099
O	      4.22452      2.17962      4.33946         0.005030      0.003279     -0.028797
O	      6.51724      4.39854      4.25981         0.004201     -0.012920      0.005457
O	      6.49557      2.16768      6.42619         0.007994      0.081820     -0.029039
O	      8.75286      4.44229      6.46754        -0.133586     -0.014683     -0.053318
O	      2.11851      4.36682      4.25811        -0.003685      0.039722     -0.054842
O	      4.35712      6.64147      4.33536        -0.022700      0.042477      0.052514
O	      4.27171      4.30216      6.50706         0.092090      0.000609     -0.010353
O	      6.56627      6.59402      6.62929         0.047440     -0.054509      0.001635
O	      6.51019      4.64580      8.57677         0.021882      0.003086      0.000626
O	      8.58743      6.57391      8.56808         0.021839     -0.018313      0.010000
O	      2.15967      6.45492      6.41077         0.102287      0.131478      0.001257
O	      4.48240      8.82017      6.42351        -0.119194     -0.086375      0.016090
O	      4.61095      6.50780      8.54465         0.057330      0.002230     -0.008063
O	      6.58226      8.46166      8.55931         0.025744      0.026773      0.095248
O	      6.61458      6.52436     10.45368         0.036738      0.005055      0.025163
O	      8.78573      8.64016     10.62200        -0.014992      0.006336      0.024940
