# total energy = -197.03968122 eV
 
CRYSTAL
PRIMVEC
0.044574 6.151045 6.292698 
6.149131 0.039377 6.298135 
4.107837 4.112761 0.017837 
PRIMCOORD
36 1
Li	      6.19361      6.17864     12.54223        -0.038193      0.099695      0.037938
Li	      8.21110      8.28974     12.49429        -0.080025      0.031645     -0.015830
Li	      4.15150      8.17881      8.31529         0.001735     -0.037091      0.131390
Li	      8.27170     10.22279     10.55787        -0.059853      0.097672     -0.024063
Li	      6.14918      6.17224      4.24925        -0.040441     -0.000838      0.007033
Li	      6.24274      4.08808      6.35316         0.034153      0.046453     -0.012029
Li	      4.11359      8.22722      4.28238         0.051758     -0.160505     -0.144161
Li	      8.20890      6.22771     10.53184         0.090420     -0.020989      0.003025
Li	      4.14627      6.23132      6.28344        -0.000530     -0.113598     -0.090091
Mn	      2.12628      6.20843      8.34134         0.123326     -0.059169      0.107316
Fe	      8.21244      4.08725      8.32836         0.097685      0.028600      0.208285
Fe	      4.11459      4.16480      4.26177        -0.002719      0.043666     -0.076513
Co	      6.13610      8.22407      6.29509        -1.185135      0.081579     -0.460517
Co	      6.14177      6.21968      8.41775        -0.059150      0.241820     -0.092804
Cu	      6.17940      2.06122      4.29060        -0.221363      0.211092     -0.247939
Ni	      6.15564      2.11583      8.39866        -0.011269     -0.010976      0.307383
Ni	      8.24256      6.15918      6.32094        -0.026878     -0.160088     -0.128342
Ni	      8.25314      8.24001      8.45891         0.058048     -0.015228     -0.023029
O	      8.07790      8.20806     10.47626         0.199620      0.005296      0.145074
O	      2.06657      2.02532      2.07667         0.069729      0.077973     -0.029693
O	      4.14745      4.13327      2.17286         0.048677     -0.135488     -0.243020
O	      4.27456      2.22663      4.25558         0.115661     -0.703950     -0.084575
O	      6.11731      4.07204      4.05202         0.281960     -0.228408      0.065676
O	      6.11885      2.11918      6.42398         0.226941     -0.021602     -0.281887
O	      8.23013      4.14833      6.42391         0.029569     -0.197423     -0.031944
O	      2.17879      4.05465      4.24659        -0.340725     -0.090906     -0.692658
O	      4.13110      6.01243      4.16754         0.092998      0.866147     -0.057954
O	      3.98275      4.10039      6.28328         0.037164      0.084053      0.199386
O	      6.20786      6.31016      6.45640        -0.102092     -0.420081      0.198778
O	      6.20980      4.23312      8.48883        -0.032692      0.112374     -0.039918
O	      8.12787      6.13622      8.39823        -0.063509     -0.005767      0.127908
O	      2.10077      6.01601      6.42308        -0.017003      0.473204      0.127819
O	      4.34686      8.22326      6.23229         0.505029      0.044047     -0.073261
O	      4.08328      6.13959      8.38787         0.122801      0.200779     -0.126397
O	      6.18802      8.22148      8.19920         0.067215     -0.262554      1.072276
O	      6.13656      6.33014     10.27670         0.027088     -0.101434      0.237335
