# total energy = -198.03463388 eV
 
CRYSTAL
PRIMVEC
0.029709 6.077704 6.308793 
6.141504 0.016666 6.322110 
4.084193 4.050518 0.021509 
PRIMCOORD
36 1
Li	      4.10799      4.04512      0.09695         0.012318      0.021644     -0.032350
Li	      8.14782      4.06644      4.24359         0.037428     -0.035335      0.052983
Li	      2.05992      4.07624      2.16314        -0.093552      0.150017      0.025520
Li	      2.03508      2.07749      4.15939         0.000115      0.049288     -0.025403
Li	      4.10680      4.04137      4.22955        -0.044975      0.037109      0.073227
Li	      6.11532      4.08065      6.30482        -0.003974      0.026501      0.048052
Li	      2.07379      6.04156      4.19673        -0.015449     -0.016364     -0.096531
Li	      2.08175      4.07966      6.20801         0.009918      0.010745     -0.087144
Li	      4.11103      4.05138      8.39212         0.033551     -0.087229     -0.028094
Mn	      0.07138      4.05688      4.19258        -0.008383      0.095438     -0.382119
Fe	      8.17171      2.14807      6.32524        -0.108678      0.122235     -0.213015
Fe	      4.06693      2.06025      6.28648         0.099122     -0.152422      0.469442
Co	      6.17669      8.09581     10.54445         0.151762     -0.218370      0.114506
Co	      6.17996      6.05024      8.45324         0.222723     -0.381230     -0.046461
Cu	      6.18695     10.10482      8.46538         0.182285      0.001907     -0.150847
Cu	      4.06352      2.06575      2.17145         0.072962      0.071335      0.146653
Ni	      4.08694      6.05704      2.15987        -0.147751      0.078102     -0.073992
Ni	      4.12653      6.02729      6.28795         0.104326     -0.211747     -0.117115
O	      4.15334      6.16757      8.34356        -0.418945     -0.031985      0.171923
O	      6.09200      7.94145      8.63112        -0.025511      0.296883      0.117126
O	      2.07463      2.11357      2.01420         0.158492     -0.107416      0.243084
O	      4.20971      4.02625      2.14447         0.053363     -0.125132      0.035154
O	      4.22026      2.01351      4.37397        -0.024208      0.016420     -0.570544
O	      6.16122      3.89295      4.02736         0.002587      0.059531      0.129879
O	      6.16459      2.04896      6.24196        -0.027941      0.008247     -0.100739
O	      8.17367      4.13908      6.32679         0.027716     -0.145339      0.008597
O	      1.89827      4.06967      4.22121         0.060159     -0.011963     -0.005806
O	      4.09539      6.20952      4.20102         0.041490     -0.100559      0.009005
O	      4.10111      3.95253      6.29857        -0.008865      0.303946     -0.018983
O	      6.15530      6.06766      6.50634        -0.093063     -0.013397      0.123446
O	      6.10966      4.11288      8.58040        -0.050105      0.192463      0.185326
O	      8.15315      6.08699      8.30222        -0.042702      0.025847     -0.023360
O	      2.12960      6.14257      6.53636        -0.157834     -0.057536      0.036061
O	      4.05042      8.11624      6.12413         0.108562      0.067136      0.232879
O	      6.16398      6.05927     10.37555        -0.027181      0.061082     -0.121473
O	      8.16610      8.08498     10.64947        -0.079763      0.000152     -0.128890
