# total energy = -200.39158030 eV
 
CRYSTAL
PRIMVEC
0.039442 6.044639 6.348210 
6.165517 -0.000103 6.389809 
4.108598 4.054961 0.001701 
PRIMCOORD
36 1
Li	      2.19774      8.05664      6.33309         0.020469     -0.018099     -0.031639
Li	      2.08665      6.06332      8.37770         0.078227     -0.011415      0.053144
Li	      4.08766      8.06685      8.32468         0.003121     -0.080389      0.067017
Li	      4.19523      6.04219     10.53814        -0.014615     -0.003981     -0.055871
Li	      4.09719      4.05571      4.22378         0.047258     -0.039961      0.048922
Li	      6.18574      4.05806      6.38452         0.018141      0.049179     -0.029846
Li	      4.11132      8.08148      4.30062        -0.039980      0.054066     -0.054325
Li	      2.07264      6.08135      4.34779         0.016405      0.006057     -0.023279
Li	      4.04981      6.08053      6.34194         0.008796     -0.029988     -0.008280
Mn	      8.23950      6.06596      6.38928        -0.154136      0.232728     -0.194132
Fe	      6.25587      8.14108     10.55501        -0.189384     -0.020455      0.022592
Fe	      4.16504      6.02113      2.24043         0.005225      0.487867      0.019849
Co	      6.13647      6.00715      4.21779         0.260067     -0.290574     -0.019814
Co	      4.12371      4.07493      8.50487         0.014374      0.028337      0.058547
Co	      6.15521      6.05492      8.49325        -0.078019      0.043357      0.019719
Cu	      4.16502     10.05307      6.36480        -0.035215      0.080181      0.034305
Ni	      2.07593      4.01199      2.17478        -0.212746      0.050811      0.115509
Ni	      6.16257      8.09426      6.35108         0.205738     -0.121057     -0.040100
O	      2.01941      5.91766      6.31557        -0.131395      0.431448      0.066619
O	      4.26411      8.10357      6.33087        -0.430405      0.169953      0.044670
O	      2.01865      2.00806      2.15801         0.054583     -0.117652     -0.103747
O	      4.07619      4.10683      2.19278         0.146991     -0.337745     -0.474719
O	      4.16029      2.03885      4.48633        -0.100338     -0.044448      0.184303
O	      6.18343      4.09398      4.29555        -0.013970      0.488543      0.063083
O	      6.06423      2.02024      6.36798         0.038389     -0.170223      0.156045
O	      8.27636      4.16583      6.47853         0.104491     -0.060842     -0.031161
O	      2.08968      3.81814      4.26260        -0.036006      0.012333     -0.166389
O	      4.18016      6.03753      4.19211        -0.304713      0.002109     -0.060911
O	      4.00836      3.96626      6.54250         0.306998     -0.107616      0.073919
O	      6.29689      6.14385      6.46659         0.015810     -0.280189      0.116495
O	      6.08639      4.08500      8.47864        -0.043708     -0.010742     -0.068926
O	      8.20231      6.12687      8.37836         0.035542      0.071592     -0.038389
O	      4.28245      5.95813      8.44024        -0.051048     -0.004098     -0.028591
O	      6.28593      8.00910      8.50848        -0.021589     -0.103157      0.002587
O	      6.20896      6.17836     10.37864         0.073213     -0.301060      0.266999
O	      8.16157      8.11873     10.45538         0.403432     -0.054869      0.015795
