# total energy = -199.72021854 eV
 
CRYSTAL
PRIMVEC
-0.020310 6.314136 6.226542 
6.007001 0.006378 6.199874 
4.032646 4.219488 -0.023723 
PRIMCOORD
36 1
Li	      9.97313      4.18140      6.18331         0.006613     -0.048460      0.010069
Li	      8.03369      2.19521      6.19378         0.005050     -0.031597      0.026856
Li	      6.01070      4.22192      2.01937        -0.031948      0.029032     -0.077188
Li	      4.03508      8.46294      8.24703         0.023749      0.013833     -0.024421
Li	      8.07608     10.44404     10.40249         0.020855     -0.017918     -0.030729
Li	      7.99283      4.18800      8.15243         0.048941     -0.004274     -0.042512
Li	      8.04957      6.22097      6.18651        -0.009550     -0.000066      0.016714
Li	      7.99100      6.39261     10.36949         0.043977      0.019282      0.075737
Li	      5.99164      8.47711      6.25880         0.017915      0.055082      0.064985
Mn	      3.97135      4.20565      4.10301        -0.088464      0.117670      0.017340
Fe	      2.03448      2.08198      4.04519        -0.105124      0.021126      0.167469
Fe	      3.93040      6.39425      6.29717         0.052041     -0.096994     -0.185659
Co	      9.94635      6.25722      8.12997         0.064667     -0.227774      0.060632
Co	      5.99157      4.31888     10.37460        -0.013965     -0.108753      0.143401
Co	      6.05215      6.33804      8.30337        -0.022133      0.089235      0.027687
Ni	      6.04837      8.37984     10.36027        -0.022784      0.001675      0.131681
Ni	      6.05653      4.20632      6.19818        -0.096731      0.037179      0.058979
Ni	      3.97963      4.23436      8.28087        -0.044340      0.068375     -0.023705
O	      1.82873      2.10042      2.12953        -0.067279      0.023346     -0.098431
O	      3.97655      4.25468      2.18753        -0.045144      0.044682      0.027762
O	      3.97062      2.29849      4.13517         0.127826     -0.045846     -0.015886
O	      5.91878      4.23771      4.12598        -0.081109      0.036199     -0.095370
O	      6.02695      2.25627      6.19174        -0.066031     -0.088012      0.171664
O	      7.90099      4.24488      6.15733         0.360164      0.060031     -0.028691
O	      2.00847      4.09307      4.20607         0.056581     -0.030889     -0.048707
O	      4.03843      6.18295      4.15637        -0.013048     -0.038617     -0.095955
O	      4.09985      4.30657      6.11909        -0.106102     -0.081922     -0.130509
O	      5.90329      6.21553      6.28450         0.288937      0.030945     -0.064672
O	      6.00280      4.35677      8.35242         0.140663      0.082812      0.187422
O	      8.06705      6.37895      8.23397         0.038929     -0.042956     -0.009285
O	      2.15933      6.28143      6.27546        -0.472373     -0.002808     -0.027607
O	      4.01727      8.32150      6.07017         0.050479      0.269309     -0.148959
O	      4.11015      6.33063      8.22008         0.068690     -0.019740      0.290270
O	      6.04442      8.25340      8.35308        -0.087691     -0.116467     -0.324238
O	      6.03739      6.33379     10.21903         0.009127     -0.027236     -0.076616
O	      8.14241      8.42059     10.28911        -0.051387      0.030516      0.070473
