# total energy = -206.18664837 eV
 
CRYSTAL
PRIMVEC
0.026900 6.321456 6.144648 
6.132574 0.058347 6.112824 
4.123186 4.228129 0.004173 
PRIMCOORD
36 1
Li	      6.17552     10.55290      8.18259         0.174891      0.028166     -0.004737
Li	      4.19866      8.37334      8.21833        -0.045376     -0.158796     -0.064781
Li	      8.17250      4.39805      8.19704        -0.035425     -0.019350     -0.031141
Li	      8.17950      6.35070      6.19709        -0.022452     -0.010064      0.000708
Li	      6.15946      4.31281     10.13706        -0.088293      0.110744      0.006182
Li	      2.10361      6.27204      4.02297        -0.079265      0.048129     -0.007722
Li	      6.26466      8.44488      6.20257         0.000990     -0.035188      0.066057
Li	      8.25262      8.38579      8.19288        -0.012876      0.165098      0.030683
Li	      6.29637      6.36783      8.19041        -0.140782     -0.015148      0.021076
Mn	      4.11202      6.36834      6.16402        -0.155020      0.211420      0.855073
Fe	      4.18154     10.43959      6.19814        -0.047335      0.035601     -0.306664
Fe	      2.06484      2.25473      4.00120         0.045377     -0.355133      0.012994
Co	      8.17132      2.17735      6.13146         0.126235      0.127545     -0.056478
Co	      4.11895      6.31536     10.06540        -0.040709     -0.104397      1.602333
Co	      6.17470      8.42413     10.07162         0.188654     -0.059160     -0.354507
Co	     10.18882      6.46396      8.16382         0.044646      0.079543     -0.084891
Co	      6.13886      4.25661      6.14001         0.112060      0.118969      0.013335
Cu	      4.08928      4.23730      4.03520         0.118405     -0.005373      0.065096
O	      8.34569      6.40286      8.14072         0.215769      0.000468     -0.024440
O	      1.89414      2.12055      1.99507        -0.243411      0.037458      0.071864
O	      4.10739      4.40622      1.95470        -0.029487      0.122764      0.408142
O	      4.06433      1.98945      4.12059        -0.005379     -0.165695     -0.296922
O	      6.09550      4.27133      4.17846        -0.028438      0.056759      0.054067
O	      6.22719      2.25136      6.02359         0.062051     -0.050347      0.027504
O	      8.13876      4.12338      6.03462        -0.080960     -0.108133     -0.130299
O	      2.16728      4.14688      4.13058        -0.139071      0.163920      0.021204
O	      4.17972      6.47110      4.15740        -0.003310     -0.172799     -0.037103
O	      4.19786      4.43003      6.09804         0.016626     -0.112147     -0.246043
O	      6.06489      6.22622      6.11687        -0.022325     -0.039461     -0.073680
O	      6.14834      4.13172      8.02687         0.007146     -0.225184     -0.052680
O	      2.11087      6.45800      6.15636         0.133679      0.075211     -0.049194
O	      4.03868      8.42785      6.22904        -0.139789     -0.148342     -0.055139
O	      4.12277      6.32640      8.23436         0.020595      0.047382     -1.283645
O	      6.18915      8.46312      8.28750        -0.015904      0.012332      0.271394
O	      6.14334      6.39394     10.34947         0.100348      0.045131     -0.060704
O	      8.17991      8.55012     10.37199         0.008135      0.298077     -0.306943
