# total energy = -192.37584862 eV
 
CRYSTAL
PRIMVEC
0.038516 6.106807 6.528093 
6.088706 0.034297 6.533265 
4.076110 4.090954 0.006167 
PRIMCOORD
36 1
Li	      4.09472      4.10161      0.04364        -0.006703     -0.094662      0.012987
Li	      2.03155      6.14287      8.54901         0.016846      0.010636      0.039786
Li	      6.01784      2.06512      4.39859        -0.004224      0.081251     -0.032624
Li	      6.10672      2.05605      8.67039         0.044425     -0.026087      0.062388
Li	      4.12433      4.04116      4.35625         0.100646     -0.002217     -0.067914
Li	      8.11945      6.17514      6.53746         0.016533     -0.014614      0.046581
Li	      6.13548      8.10283      6.58519        -0.098314      0.071097      0.026820
Li	      4.10152      6.13964      6.51295        -0.039466      0.016704     -0.030131
Li	      6.11871      6.15535      8.67742        -0.051490     -0.004370     -0.014890
Mn	      6.10309      4.10702     10.85267        -0.033244     -0.116313     -0.281777
Fe	      2.06349      6.08909      4.37158         0.057751      0.078645      0.005072
Fe	      3.98348      4.09487      8.58291         0.086081      0.071514      0.234280
Cu	      4.17222      8.15599      8.72361         0.193135     -0.202239     -0.071694
Cu	      2.10087      4.09970      2.14777        -0.232613      0.235156     -0.085379
Cu	      6.16555      6.13768      4.46742        -0.152017     -0.117977     -0.166150
Cu	      6.08626      4.10412      6.53851        -0.246473      0.007585      0.306200
Cu	      8.13919      8.17671     13.03302         0.342612     -0.064984      0.042494
Cu	      4.06254      0.06364      4.34876        -0.126633     -0.079959     -0.081821
O	      2.04214      6.29225      6.36288        -0.049509     -0.130485      0.034375
O	      3.91687      8.16171      6.23854        -0.005605      0.046917      0.101111
O	      4.08217      6.22784      8.78177         0.013389      0.070891     -0.010338
O	      6.09890      8.20307      8.63784        -0.197731     -0.022879     -0.064925
O	      2.24204      2.11580      2.38505        -0.034971      0.029271      0.229911
O	      4.04519      3.92374      2.18121        -0.044353      0.159362      0.003271
O	      4.03690      1.98227      4.56172         0.161580      0.185135      0.085217
O	      6.17313      4.17665      4.52043        -0.005351     -0.100875     -0.757387
O	      6.25223      2.12461      6.57656        -0.319759      0.490154      0.060323
O	      8.07386      3.95061      6.46744         0.002619      0.135512     -0.009009
O	      1.92369      4.09061      4.51314         0.027939      0.140724      0.080420
O	      4.09073      6.22412      4.30132        -0.081666      0.044459     -0.022032
O	      4.13397      4.09921      6.68302         0.229252     -0.049036     -0.012450
O	      6.10822      6.04874      6.46467        -0.038608     -0.529645      0.193724
O	      6.15764      4.10667      8.81754         0.229124      0.005344      0.453797
O	      8.16692      6.15184      8.84143         0.001715     -0.195172     -0.116049
O	      6.11405      6.03003     10.85802         0.184758      0.038828     -0.013155
O	      8.23630      8.21320     10.62259         0.060325     -0.167668     -0.181030
