# total energy = -199.64464285 eV
 
CRYSTAL
PRIMVEC
0.000000 6.074854 6.068234 
6.662337 -0.000238 6.073654 
4.407470 4.019028 0.034307 
PRIMCOORD
36 1
Li	      2.31933      5.99783      8.07524         0.004181      0.016485     -0.008215
Li	      4.44764      6.05920     10.06698         0.053927     -0.005920     -0.006542
Li	     10.85173      6.19708      8.11586        -0.002870     -0.028975      0.064696
Li	      8.71071      4.13498      8.08264        -0.037218     -0.013345      0.018026
Li	      6.66368      4.09849      9.95254         0.019456     -0.087907     -0.018997
Li	      6.71266      8.01771      6.23175        -0.013869      0.006640     -0.054281
Li	      4.44080      6.03033      6.17554        -0.007722     -0.013461      0.014663
Li	      4.65732      4.07684      8.05968         0.048224      0.062471     -0.055120
Li	      6.59769      6.05703      8.11776         0.025377     -0.044909     -0.045360
Mn	      2.33850      8.11713      6.08874         0.056733      0.015700      0.052032
Fe	      0.08967      6.09972      6.11574         0.058675     -0.073783      0.171614
Fe	      6.47554      6.10617      4.04771        -0.049693     -0.013865     -0.100065
Fe	      4.33275      4.02568      4.08664        -0.125653      0.073532     -0.162257
Co	      4.39565      7.99132      8.14877         0.018308     -0.049847     -0.055417
Cu	      6.72088      8.07933     10.06706        -0.055395     -0.066741     -0.166513
Cu	      8.73487      5.98207      6.19557         0.072934     -0.050413     -0.045834
Cu	      6.58242      4.03805      6.11549         0.074228     -0.005604      0.069104
Cu	      8.91239      6.06268     10.06164         0.143009     -0.037143      0.006820
O	      8.88644      6.10773      8.10109        -0.060068      0.010939     -0.081296
O	      4.35028      6.17735      8.14919        -0.003593      0.052641      0.010371
O	      6.26456      8.04901      8.19986        -0.098728     -0.040751      0.194671
O	      6.90146      6.13423     10.20491        -0.156242      0.289880     -0.217422
O	      2.43816      2.00966      1.99665         0.038135      0.006372     -0.049343
O	      4.45481      3.86735      2.06531         0.021402     -0.022453      0.085269
O	      4.15681      2.00312      4.02263        -0.052728     -0.095517      0.005433
O	      6.44022      3.98263      4.20952         0.078346     -0.291158     -0.120315
O	      7.02923      2.11143      6.06519         0.052094      0.105007     -0.179885
O	      9.15935      4.02530      6.05008         0.001922      0.098044      0.009801
O	      2.24244      4.04377      4.05582        -0.037202      0.034799     -0.003967
O	      4.46126      5.99958      3.99738        -0.003257      0.038617      0.017734
O	      4.27155      3.87068      6.04357        -0.171749      0.052203      0.192751
O	      6.48891      5.90569      5.99258        -0.119118      0.126998      0.055774
O	      6.67506      4.08902      7.92697         0.071090     -0.050952      0.295793
O	      2.15693      6.20447      6.05999         0.026319     -0.076155      0.119731
O	      4.29359      8.09414      6.21655         0.058615     -0.073781     -0.034454
O	      9.05984      8.05362     10.27007         0.072130      0.152353      0.020998
