# total energy = -93.11340538 eV
 
CRYSTAL
PRIMVEC
2.044637 4.223078 2.044455 
2.084180 -4.263057 2.083931 
4.148148 -0.000061 -4.147742 
PRIMCOORD
16 1
Li	      2.14990     -0.03924     -2.10802         0.114535      0.088068     -0.030974
Li	      2.09881     -0.02010      2.07213        -0.160858      0.021070      0.094456
Li	      2.13029     -2.14857     -0.02460         0.099217      0.000720      0.019833
Li	      4.18809     -2.10930     -2.04443        -0.016144     -0.084891      0.011962
Mn	      0.04367     -0.04149     -0.00093        -0.417770      1.087378      0.726316
Mn	      2.09176      2.13347     -0.02505         0.193166     -0.654833     -0.184235
Ni	      4.16309      2.13364     -2.09673        -0.180900     -0.304582      0.277051
Ni	      4.19867     -0.01916     -0.02726         0.016091      0.088430     -0.171781
O	      6.36692     -0.03224     -0.02694        -0.074360     -0.053350     -0.117586
O	      4.04603      2.01767     -0.01462        -0.413857     -0.175191      0.029501
O	      4.19775     -0.00630     -2.19558         0.098593     -0.035630      0.045199
O	      4.17344     -0.19534      2.15369        -0.054240     -0.123750     -0.288921
O	      4.18573     -2.05647      0.12491        -0.148308      0.304938      0.339854
O	      2.08417      2.28268      1.97677         0.282682     -0.397628     -0.420932
O	      2.01682      0.15671     -0.00208         0.260412      0.227693      0.025159
O	      2.19441     -2.32032      2.08673         0.401742      0.011559     -0.354902
