# total energy = -209.71521682 eV
 
CRYSTAL
PRIMVEC
-0.004697 6.274873 6.270343 
6.007233 0.022035 6.244002 
4.029931 4.190183 -0.009867 
PRIMCOORD
36 1
Li	      4.03721      4.20197      0.03043         0.115231     -0.079837     -0.039075
Li	      4.01228      2.15460      2.04960         0.046212      0.039540     -0.045911
Li	      4.02366      6.27539      2.09592        -0.052065      0.007018      0.152709
Li	      4.02901      4.19799      4.14198        -0.088624      0.049106     -0.044078
Li	      4.05227      2.14413      6.24530        -0.075803      0.137493      0.041445
Li	      5.97912      4.18018      6.28411        -0.030353      0.017441      0.053892
Li	      4.05515      8.32128      4.17736         0.079615     -0.007519      0.011565
Li	      4.02628      6.27549      6.24562         0.011882     -0.035157     -0.035508
Li	      6.01686      6.24530      8.29094         0.042376      0.006484     -0.084555
Mn	      4.06837      4.18668      8.29855         0.026588     -0.313891     -0.055160
Fe	      2.04093      8.32676      6.33282         0.330081     -0.272913     -0.129084
Fe	      4.06357      0.09604      4.23134         0.216242     -0.180694     -0.130802
Fe	      8.09380      4.30324      8.29712        -0.161173      0.289425      0.356028
Co	      5.99068      4.17404      2.07857         0.036969     -0.072646     -0.254802
Co	      5.99753      2.12860      4.14617         0.067663     -0.288197      0.443699
Co	      5.94899      6.30510      4.17781        -0.234578     -0.099473      0.385670
Co	      2.10092      6.24928      4.19460        -0.922636     -0.296916     -0.116238
Co	      5.95266      8.28871      6.23721         0.212967      0.878679      0.201617
O	      1.98630      1.99837      2.07839         0.039284     -0.026869     -0.043707
O	      4.01108      4.19711      2.07874         0.144066     -0.040861     -0.050965
O	      4.05801      2.02427      4.15836        -0.275994      0.045834     -0.011325
O	      6.05587      4.11117      4.01682         0.004052      0.952372     -0.010844
O	      6.11026      2.11823      6.03522        -0.100928      0.146883     -0.018744
O	      8.01288      4.14010      6.27103        -0.033634     -0.162843     -0.107701
O	      1.99229      4.23678      4.10858        -0.031347     -0.055368     -0.426109
O	      3.90974      6.26058      4.19474         0.939622      0.044497      0.028744
O	      3.96011      4.20135      6.44113        -0.454666     -0.091886      0.120625
O	      6.02074      6.44102      6.19491        -0.066172     -0.130418     -0.496339
O	      5.97668      4.22894      8.33025        -0.142481     -0.056843     -0.102307
O	      8.03218      6.36010      8.35648         0.092747      0.230307     -0.159881
O	      1.99790      6.22279      6.37155        -0.096554     -0.067573      0.372291
O	      3.97682      8.37534      6.24225         0.146026     -0.159675      0.057526
O	      3.91666      6.12765      8.44004        -0.083358     -0.006290      0.053062
O	      6.08444      8.49732      8.39796         0.091963      0.166430      0.169415
O	      6.06488      6.46368     10.40024         0.017748     -0.651280     -0.132299
O	      7.96812      8.39955     10.36499         0.189030      0.085639      0.047147
