# total energy = -195.00948928 eV
 
CRYSTAL
PRIMVEC
0.003467 6.184658 6.129380 
6.278721 -0.021838 6.154778 
4.167759 4.122004 0.003426 
PRIMCOORD
36 1
Li	      4.17568      4.10730      0.11561        -0.005543     -0.012160      0.044071
Li	      6.18502      4.12962      2.07818        -0.118797      0.024291      0.052738
Li	      4.18965      2.12762      2.08170        -0.011257      0.079105     -0.021323
Li	      4.14083      6.07000      2.13352        -0.010769     -0.019885      0.018648
Li	      2.15401      4.17074      2.09056         0.029813     -0.014057      0.000164
Li	      2.05936      2.11015      4.00856        -0.018307      0.034106     -0.098991
Li	      4.12666      4.15540      3.99941        -0.062178      0.047254     -0.009268
Li	      2.14048      6.12478      4.04503         0.046347      0.004300     -0.005652
Li	      8.34487      8.20229      8.17027         0.020936     -0.027570      0.028126
Mn	      6.26373      8.20794     10.19385         0.094969      0.007599      0.027440
Fe	      2.11069      2.00762      0.10651         0.018802      0.079760     -0.200824
Fe	      6.20594      4.12867      6.17427         0.064618     -0.083626      0.108565
Fe	      0.10965      4.06042      4.02722        -0.117808      0.148523     -0.100627
Ni	      4.18385      6.17077     10.18430        -0.040574     -0.056756     -0.054252
Ni	      8.34906      6.15889      6.17491         0.065865     -0.058017     -0.060889
Ni	      2.11091      4.17416      6.15426        -0.029619      0.098876      0.005607
Ni	      4.17765      6.18175      6.13409         0.003167      0.036970      0.011212
Ni	      6.29130      6.17515      8.18384         0.019446     -0.012431      0.042115
O	      2.09190      2.06446      1.89096        -0.007728      0.023721      0.537071
O	      4.15295      4.13254      2.05372         0.005267     -0.036361      0.010203
O	      4.34011      1.99173      4.17088         0.138597      0.141107     -0.090648
O	      6.31229      3.96768      4.13006        -0.103643     -0.142274     -0.075810
O	      6.27666      2.08389      6.04578        -0.036128     -0.094637     -0.112786
O	      8.25259      4.03629      6.10262         0.032149      0.066047      0.025986
O	      2.00282      4.13612      4.14578         0.249436      0.012353     -0.131506
O	      4.16663      6.26765      4.13134         0.006462     -0.200510      0.004132
O	      4.21057      4.11231      6.13544        -0.043506     -0.006342     -0.023977
O	      6.26874      6.15087      6.14759        -0.053721      0.021893     -0.157915
O	      6.24241      4.16124      8.20836        -0.045198     -0.033568     -0.134649
O	      8.17009      6.16680      8.11297         0.154787     -0.013679      0.096318
O	      2.15557      6.25968      6.19091        -0.048785     -0.165518      0.019667
O	      4.15466      8.24861      6.03593         0.022228      0.045499      0.166462
O	      4.38818      6.18638      8.16658        -0.137771      0.005139     -0.063932
O	      6.30074      8.16853      8.27774         0.017014      0.101110      0.124814
O	      6.24551      6.23186     10.20792         0.075648      0.082184      0.160304
O	      8.29157      8.23880     10.37385        -0.174221     -0.082444     -0.140595
