# total energy = -201.45688432 eV
 
CRYSTAL
PRIMVEC
0.056003 6.226579 6.182774 
6.216941 0.023233 6.215970 
4.146540 4.174996 0.013642 
PRIMCOORD
36 1
Li	      6.21649      0.05117      6.23704         0.092792     -0.105988     -0.025947
Li	      4.23579      8.36376      8.20262         0.007176     -0.037233     -0.037815
Li	      6.32201      8.26402     10.32349         0.025104     -0.074220     -0.047316
Li	     10.29640      6.28139      8.24726         0.007474      0.036570      0.068829
Li	      8.29914      4.27972      8.27855        -0.029318      0.017755      0.069815
Li	      8.25938      6.30166     10.24173        -0.020833      0.013029     -0.078625
Li	      6.24316      8.35102      6.24395        -0.088038      0.081015      0.000068
Li	      8.32878      8.24249      8.30564         0.001063     -0.000097      0.078154
Li	      6.35431      6.27425      8.29744        -0.016154     -0.019366      0.058092
Mn	      2.08684      2.10769      4.08688        -0.073791      0.052960     -0.212076
Cr	      6.24295     10.30908      8.23682        -0.004537     -0.034111     -0.286576
Cr	      4.24960      6.21317     10.30253         0.339357     -0.188514     -0.075711
Co	      6.26353      4.19994     10.30315        -0.022232      0.080831      0.212369
Cu	      4.15743      4.17156      4.11193        -0.227068      0.039096     -0.240682
Cu	      6.21051      4.15056      6.31925         0.085884     -0.060382      0.108788
Cu	      4.18084      6.26169      6.23263        -0.000258     -0.060385      0.016527
Ni	      2.04884      2.08657      0.03552         0.055985     -0.037226      0.077712
Ni	      8.35709      6.23663      6.30361        -0.264891      0.212279     -0.250101
O	      8.31107      6.26809      8.19961        -0.029916     -0.011318      0.270797
O	      4.11507      8.24026      6.07800         0.203948      0.325081     -0.032621
O	      6.26350      8.49691      8.28974         0.024945      0.046305     -0.037596
O	      2.09580      1.97354      2.16908         0.013228      0.001810      0.052320
O	      4.29763      4.19077      2.17515         0.061056     -0.002575     -0.072975
O	      4.02227      2.01120      4.22348        -0.092050      0.075824      0.000124
O	      6.29499      4.30199      4.02214         0.144819      0.146037      0.127926
O	      6.23065      2.18538      6.19319         0.036653      0.246473     -0.011722
O	      8.23330      4.16270      6.14643        -0.269578      0.045152     -0.060165
O	      1.99804      4.01650      4.14145         0.162318     -0.153780      0.009405
O	      4.28351      6.38500      4.21745         0.169369     -0.188116     -0.203448
O	      4.22609      4.22305      6.04931         0.163506     -0.261688      0.264254
O	      6.20027      6.16548      6.08341         0.301519     -0.154794      0.093937
O	      6.23966      4.16783      8.50781         0.014497      0.051961     -0.327327
O	      2.18691      6.28608      6.25662        -0.342663     -0.223159      0.248694
O	      4.07425      6.26912      8.24858        -0.217831      0.021454      0.309789
O	      6.21574      6.10411     10.35928        -0.125145      0.071870     -0.010059
O	      8.47203      8.41273     10.37373        -0.086391      0.047445     -0.056840
