# total energy = -90.04688767 eV
 
CRYSTAL
PRIMVEC
2.125613 4.390328 2.125423 
2.166722 -4.431891 2.166463 
4.312431 -0.000063 -4.312009 
PRIMCOORD
16 1
Li	      2.40937     -0.21793     -2.19250         0.489116      0.459382     -0.174241
Li	      2.43913     -0.02172      2.06873        -0.693375      0.072266      0.336852
Li	      2.30237     -2.32212     -0.02659         0.410232     -0.001995      0.022975
Li	      4.61057     -2.10580     -2.12540        -0.069442     -0.238191      0.006301
Mn	      0.30380     -0.22037     -0.08598        -1.633949      6.438172      3.454603
Mn	      2.26073      2.30581     -0.02707         0.519305     -2.756331     -1.005655
Ni	      4.49937      2.30599     -2.26610        -0.781086     -1.022380      1.076243
Ni	      4.53783     -0.02071     -0.02946         0.147019      0.312707     -0.801019
O	      6.88122     -0.03484     -0.02911        -0.676972     -0.584485     -0.471337
O	      4.37285      2.18065     -0.01580        -1.082540     -1.114890      0.047695
O	      4.53683     -0.00680     -2.37293         0.391791     -0.234674      0.635675
O	      4.51056     -0.21112      2.32765        -0.215721     -0.211022     -1.805872
O	      4.52383     -2.22258      0.13499        -0.194157      1.653980      0.982871
O	      2.25253      2.46707      2.13644         0.642280     -3.727592     -1.136585
O	      2.17973      0.16937     -0.00226         1.414377      0.349963      0.034622
O	      2.37167     -2.50775      2.25529         1.333119      0.605091     -1.203129
