# total energy = -206.42673605 eV
 
CRYSTAL
PRIMVEC
0.022308 6.317694 6.215098 
6.211608 0.014265 6.223191 
4.155279 4.231561 -0.004892 
PRIMCOORD
36 1
Li	      6.16005      0.11353      6.16272         0.025929     -0.025701      0.026354
Li	      6.25190      4.23034      2.19397        -0.000514     -0.044695     -0.055101
Li	      6.31549      8.48929     10.37262        -0.019307     -0.000304     -0.003784
Li	      8.29631      4.35240      8.28007         0.024146     -0.077463      0.099469
Li	      6.17520      6.25807      4.14696         0.058892      0.103156      0.038125
Li	      4.17624      4.32743      4.18547        -0.092388     -0.008732      0.029057
Li	      8.31611      6.32413      6.30515        -0.038616      0.026424     -0.153239
Li	      8.29725      6.32288     10.26229         0.013272     -0.098194      0.151833
Li	      8.31744      8.35043      8.22365        -0.059691      0.106918     -0.083304
Mn	      2.06262      2.10494      0.01134         0.090684     -0.243880      0.073866
Mn	      4.14936      6.30723      6.20379        -0.110286     -0.060631     -0.239882
V	      4.14987      2.26320      2.24540         0.050696     -0.001402     -0.002825
Fe	      6.28415      4.23968     10.25373         0.395316     -0.078422      0.358409
Co	      2.09359      4.25381      6.15906        -0.018594     -0.050899     -0.060367
Cu	      8.24414      4.20338      4.14094         0.057651      0.021578      0.157603
Cu	     10.27936      6.32872      8.33888         0.046819      0.055845      0.071622
Cu	      6.28518      6.32372      8.30644         0.046928      0.114975     -0.300897
Ni	      6.24246      4.20154      6.19665        -0.162741      0.066839      0.088517
O	      8.28958      6.38633      8.23338        -0.189467     -0.216184      0.218373
O	      6.12084      6.25202     10.29337        -0.135714      0.218895     -0.076046
O	      2.27944      2.06532      1.96574        -0.119812     -0.000575     -0.015692
O	      4.18160      4.00594      2.07561        -0.048983      0.121516     -0.026433
O	      4.14445      2.06741      3.99046         0.066688     -0.050896     -0.009419
O	      6.31714      4.20791      4.20014         0.026992      0.000769     -0.306677
O	      6.35809      2.09775      6.35515        -0.234551     -0.106593      0.099967
O	      8.28646      4.03195      6.27892         0.224973      0.143328     -0.159241
O	      2.00401      4.23679      4.23138         0.070855      0.040194      0.144642
O	      4.17739      6.42846      4.15226        -0.131420     -0.217726     -0.279391
O	      4.16605      4.42595      6.19825        -0.310295     -0.022731      0.050136
O	      6.10101      6.36371      6.27415         0.155652      0.052947     -0.011629
O	      6.21336      4.26401      8.31020         0.045718      0.050602     -0.153735
O	      2.21708      6.39631      6.21402        -0.004515      0.188484     -0.019864
O	      4.07856      8.31594      6.22064         0.138891      0.073085      0.052546
O	      4.19115      6.45644      8.14111         0.175785     -0.035007      0.365984
O	      6.03664      8.42120      8.15685         0.154015     -0.067703     -0.081540
O	      8.35746      8.46567     10.52923        -0.193009      0.022183      0.012562
