# total energy = -207.32278645 eV
 
CRYSTAL
PRIMVEC
-0.023099 6.244443 6.290501 
6.263035 0.005801 6.260854 
4.186665 4.155304 -0.007661 
PRIMCOORD
36 1
Li	      6.17136      4.24300      2.27641        -0.036887      0.012151      0.056033
Li	      8.19613      4.23963      4.29260         0.063781     -0.019689      0.042124
Li	      2.10821      4.11840      2.06386         0.034710     -0.007161     -0.035889
Li	      2.15861      2.03087      4.18428         0.049473      0.036121     -0.001688
Li	      4.20599      4.12766      4.17564        -0.042817     -0.047457     -0.002245
Li	      4.18184      1.95443      6.10911        -0.022631     -0.017319     -0.014591
Li	      6.36555      4.14636      6.16478         0.063179     -0.007899     -0.016932
Li	      0.07218      4.16901      4.19861         0.002945      0.034039      0.002906
Li	      2.04883      4.14996      6.19689         0.028437     -0.012526     -0.025379
Mn	      2.10421      6.16303      4.18790        -0.339203     -0.027942      0.172024
Mn	      6.26643      6.21248      8.34130        -0.144330      0.198471      0.078630
V	      4.17346      4.17898      8.32171        -0.190954      0.118138     -0.135761
Fe	      4.05966      2.23020      2.14991         0.298464     -0.314418      0.442934
Fe	      4.20453      6.29573      6.19705         0.006366     -0.140889     -0.017982
Ni	     10.40554      4.16148      6.24805         0.084545      0.024234     -0.062231
Ni	      8.33710      2.15080      6.25359        -0.024241     -0.025812     -0.035089
Ni	      6.21510      2.16578      4.21696         0.028142     -0.648624      0.025480
Ni	      0.08711      2.02455      2.09705         0.014992      0.071903     -0.111268
O	      6.24661      4.04089      4.19837        -0.015781      0.760006     -0.017591
O	      2.13378      2.06503      2.10890        -0.237171     -0.092873      0.028580
O	      4.22278      4.12536      2.02589         0.034075      0.329197     -0.013728
O	      4.23353      2.08488      4.11425        -0.304378     -0.005393     -0.372905
O	      6.30924      2.03077      6.27959        -0.029526      0.062587      0.349622
O	      8.43743      4.12401      6.23305        -0.162573      0.036191      0.076739
O	      2.07222      4.33799      4.17938         0.001692      0.202052     -0.033606
O	      4.04022      6.25245      4.19151        -0.036856      0.012301      0.046039
O	      4.08763      4.24411      6.49758         0.062040      0.065819      0.531084
O	      6.17277      6.23351      6.39898         0.006833     -0.030561      0.211980
O	      6.12845      4.25727      8.39635        -0.109212     -0.023139     -0.035175
O	      8.25981      6.30580      8.42844         0.019019      0.069668      0.134933
O	      2.10858      6.28875      6.10621         0.126275     -0.050473     -0.309409
O	      4.13864      8.26932      6.37263         0.061893     -0.023082      0.001470
O	      4.30667      6.20346      8.36752         0.137586     -0.109974     -0.145691
O	      6.27900      8.17304      8.40385         0.154468     -0.170930     -0.181964
O	      6.38781      6.29649     10.36658         0.244666     -0.114810     -0.219995
O	      8.27808      8.23227     10.32082         0.172976     -0.141908     -0.411460
