# total energy = -199.55032064 eV
 
CRYSTAL
PRIMVEC
0.019600 6.243367 6.247663 
6.242492 0.023147 6.244002 
4.160189 4.158381 0.017370 
PRIMCOORD
36 1
Li	      4.14925     10.33424      6.22922        -0.009632      0.048111      0.051838
Li	      4.14497      2.09576      2.13301        -0.008585     -0.027369     -0.019027
Li	      6.15809      2.13994      4.22219        -0.042739     -0.084834      0.055909
Li	      2.09919      4.15595      2.17914         0.057393      0.029014      0.042191
Li	      2.22678      2.15613      4.25967         0.015116      0.009824      0.034292
Li	      4.09566      4.03578      4.28509        -0.016922     -0.016949      0.007826
Li	      4.20198      2.10995      6.13473         0.078303     -0.102880      0.023810
Li	      4.21676      8.31811      4.29044         0.014656      0.013169      0.048389
Li	      4.14060      6.31150      6.22673        -0.053757      0.083904      0.001068
V	      4.31926      6.10979      2.22150        -0.187763      0.176179     -0.145005
V	      6.29507      6.23253      8.30869        -0.108269     -0.054981      0.266712
Co	      6.25395      4.14100      2.14315        -0.070499      0.072984     -0.155055
Co	      4.18986      4.16083      8.27741         0.004736     -0.099460      0.211061
Cu	      8.38776      8.35914     12.46735        -0.060218      0.043031     -0.080238
Cu	      4.13802      0.04598      4.14133         0.056062      0.113472      0.072360
Cu	      6.23923      4.17090      6.19570         0.138872     -0.082458     -0.093939
Cu	      2.04580      4.17817      6.19823        -0.195109      0.095290      0.137925
Ni	      2.06836      6.23817      4.21254         0.004051     -0.008918      0.094209
O	      2.09513      6.43179      6.28619        -0.004803     -0.386131      0.207431
O	      4.02992      8.34628      6.27738         0.421377      0.057849      0.009643
O	      1.91449      2.11611      2.23579         0.266002     -0.015889      0.120225
O	      4.15374      4.35233      2.10759        -0.013958     -0.247888      0.044320
O	      4.19961      2.01076      4.17493        -0.087017      0.008040     -0.067060
O	      6.27969      4.15437      4.17492         0.105073      0.054800     -0.103837
O	      6.37350      2.17329      6.42658        -0.217863     -0.121543      0.086807
O	      8.29359      4.02341      6.08882         0.021994      0.198898      0.277253
O	      2.08049      4.24266      4.35622         0.027330     -0.226859     -0.213843
O	      4.08240      6.31223      3.96475         0.129646      0.029489      0.107584
O	      4.23336      4.19257      6.35729        -0.111432      0.029800     -0.041564
O	      6.22952      6.17240      6.41646        -0.003443      0.070711     -0.295998
O	      6.29732      4.18000      8.23015        -0.245008     -0.074592      0.146608
O	      8.33289      6.26209      8.32972         0.072397     -0.084411     -0.145781
O	      4.23908      6.19428      8.40132         0.005133      0.114036     -0.346985
O	      6.25718      8.24112      8.13203         0.204853      0.173803      0.062017
O	      6.24798      6.26506     10.16330        -0.116796     -0.014277     -0.134642
O	      8.30590      8.31462     10.16873        -0.069181      0.227035     -0.266504
