# total energy = -199.42005343 eV
 
CRYSTAL
PRIMVEC
-0.002424 6.258743 6.365423 
6.241134 -0.000371 6.363101 
4.136372 4.146126 0.024663 
PRIMCOORD
36 1
Li	     10.25563      4.26478      6.41145         0.072278     -0.000234      0.003405
Li	      8.18057      2.21379      6.36505         0.008169     -0.052845      0.134490
Li	      4.22813      2.07521      2.24153        -0.056040      0.071799      0.151335
Li	      8.28460      4.23905      4.50675        -0.032214      0.137527     -0.028446
Li	      6.12556      2.11526      8.21775         0.063031     -0.089468     -0.003144
Li	      2.11161      2.13017      4.27272         0.058500     -0.045256     -0.092349
Li	      8.39096      6.12530      6.39669        -0.073652      0.059333     -0.220618
Li	      6.35051      4.03736      6.38210        -0.090713      0.014723     -0.095735
Li	      8.29588      6.16664     10.51367         0.039388     -0.084438      0.014400
V	      2.03034      0.18491      2.18004        -0.069539      0.391847      0.402509
V	     10.27630      8.27882     10.64831         0.629716     -0.245047      0.307210
Co	      4.09324      4.11929      4.24252         0.266476      1.225000     -0.016567
Co	      6.19622      6.20967      8.49730        -0.094817     -0.005456     -0.096505
Cu	      6.22057      2.07522      4.39042        -0.459263      0.010116     -0.044842
Cu	      8.27165      4.18802      8.35292        -0.040955     -0.100649      0.372711
Cu	      2.10966      4.16639      6.38317         0.086883     -0.022371     -0.110771
Cu	      4.15694      6.22998      6.37863        -0.022447      0.219070     -0.121937
Cu	      8.22535      8.26248      8.50578         0.122992     -0.041492     -0.012853
O	      4.29821      8.29737      6.12338         0.111656      0.140289      0.090872
O	      6.29215      8.40705      8.80179         0.130669     -0.040405     -0.066721
O	      8.53613      8.22622     10.76493        -0.781857     -0.011649     -0.192469
O	      2.19478      1.92537      2.05962         0.030863      0.045835     -0.198612
O	      4.38047      4.18980      2.14781        -0.282011     -0.125305      0.014262
O	      4.17463      2.30373      4.27582         0.268030     -1.138139      0.147463
O	      6.26708      4.25606      4.04456         0.377466      0.097765     -0.134095
O	      6.24309      2.06202      6.24671         0.047742      0.066752      0.190291
O	      8.30773      4.15160      6.47681        -0.080976      0.044265      0.164973
O	      1.98559      4.12804      3.95062        -0.469767      0.128206     -0.252846
O	      4.14011      6.25321      4.34103         0.054980      0.187625      0.017373
O	      4.05886      4.28115      6.24695        -0.038999     -0.677801     -0.042091
O	      6.13124      6.35073      6.59290         0.136372      0.179103      0.059901
O	      6.07340      4.05990      8.64630        -0.052887     -0.113915     -0.386740
O	      8.10247      6.27598      8.45961         0.233527      0.044967     -0.029589
O	      2.17223      6.11649      6.63312        -0.155020     -0.069419      0.026292
O	      4.16460      6.19613      8.43013         0.065829     -0.180275      0.005500
O	      6.22382      6.01345     10.43382        -0.003409     -0.020056      0.043942
