# total energy = -201.68422644 eV
 
CRYSTAL
PRIMVEC
0.058672 6.579817 6.054023 
6.286810 0.082337 6.033049 
4.257427 4.443248 -0.015945 
PRIMCOORD
36 1
Li	      6.24962      4.42475      2.13886         0.060064      0.021929     -0.054805
Li	      4.24992      6.70332     10.00595         0.005603     -0.015857     -0.049972
Li	      6.28038      8.71157      9.97527        -0.044659     -0.059876     -0.014058
Li	      8.56444      4.69859      8.02111        -0.019946     -0.095964     -0.055551
Li	      4.23944      4.42617      3.92072         0.005072     -0.045888      0.051711
Li	      4.18771      2.33442      6.07962        -0.057082      0.034542     -0.112895
Li	      8.41624      6.76098      9.93438         0.008447      0.056731      0.125411
Li	      8.44246      8.69717      8.09003        -0.020724      0.076177      0.004088
Li	      6.51196      6.76932      8.11009        -0.077869      0.062725      0.001996
V	      8.36363      2.47622      5.95038         0.063185     -0.364826     -0.076273
V	      4.15311      6.39154      6.24232        -0.101623      0.366759     -0.229134
Fe	      6.40596      4.51885      9.90876        -0.020939     -0.053618      0.212665
Co	      6.39904      6.64134      4.05744        -0.110368      0.102368      0.029979
Cu	      0.18007      6.62109      6.04497         0.095889      0.053105     -0.146384
Cu	      4.20396      2.27909      2.03120        -0.092841     -0.030569      0.121356
Cu	     10.39348      6.70415      8.05290         0.273602      0.057899     -0.087359
Cu	      6.34746      4.54181      6.06365        -0.015736     -0.123013     -0.046331
Cu	      6.29121      8.77062      6.08256         0.187030      0.036682      0.013079
O	      4.13681      6.43349      7.96772         0.020650     -0.090023      0.349270
O	      6.14215      8.87203      8.04727         0.272320      0.000518     -0.058412
O	      6.45009      6.46430     10.13879         0.015011      0.105481      0.016925
O	      2.31083      2.23928      1.81779        -0.314908      0.000066      0.142635
O	      4.29861      4.73539      1.88305        -0.118582      0.039331      0.066047
O	      4.06651      2.25760      3.91347        -0.077721      0.039695      0.302732
O	      6.36741      4.76918      4.13877         0.018785      0.065829     -0.009965
O	      6.57848      2.49566      5.85793        -0.158689      0.056222     -0.004825
O	      8.69965      4.23621      5.97705         0.052165      0.424431     -0.017546
O	      2.08137      4.15153      4.12034         0.017382     -0.034531      0.038680
O	      4.44943      6.77396      4.22394         0.094900     -0.095182     -0.119072
O	      3.96405      4.61718      6.00574        -0.060831     -0.409824     -0.043071
O	      6.08000      6.48208      6.19711         0.174803      0.019358     -0.010083
O	      6.31387      4.24801      8.01412        -0.014530     -0.036720     -0.124611
O	      8.46118      6.70661      7.96582         0.066397     -0.080363      0.077129
O	      2.31895      6.89001      5.98549        -0.075239      0.020635     -0.009803
O	      4.28467      8.57701      6.18342        -0.039953     -0.149388     -0.173203
O	      8.67055      8.86303     10.19036        -0.009067      0.045162     -0.110352
