# total energy = -207.07345024 eV
 
CRYSTAL
PRIMVEC
0.010086 6.117334 6.228172 
6.269858 0.018173 6.219348 
4.194616 4.087340 -0.002191 
PRIMCOORD
36 1
Li	      8.36678      8.18818     12.39156        -0.013362      0.044650      0.011055
Li	      6.31803      8.19093     10.31922         0.005068     -0.015074      0.006217
Li	     10.40583      6.10628      8.31105        -0.013120     -0.020683     -0.023855
Li	      6.23958      6.08244      4.22918         0.017745      0.014600     -0.001538
Li	      6.22521      4.07934      6.17965        -0.016095     -0.015323      0.009606
Li	      4.10961      8.11553      4.22547         0.009222      0.000620      0.000177
Li	      8.46344      6.25448     10.34470         0.012956     -0.008640     -0.051860
Li	      6.32635      8.17285      6.30221         0.007154     -0.007885      0.009833
Li	      8.27468      8.18300      8.29874        -0.020963      0.030642     -0.030891
V	      6.37464      6.13970     12.34758        -0.037996      0.078906      0.180524
V	      1.91632      3.98235      2.19189         0.152219      0.012102     -0.149459
Fe	      4.12981      2.10193      6.18111         0.013322     -0.124013      0.108084
Co	      2.10083      6.12099      8.28425         0.021918     -0.048711      0.016316
Co	      8.31940     10.09902     10.36793         0.086771     -0.094257      0.020572
Co	      4.20659      6.13575      6.19115         0.147585     -0.003871      0.053096
Ni	      4.24062      8.18480      8.31744        -0.073390      0.024289      0.040324
Ni	      6.31741      6.20476      8.34639        -0.072602      0.017884      0.029474
Ni	      4.28128      4.10911      4.15374        -0.156529     -0.047629     -0.050657
O	      2.12323      2.15739      2.03805        -0.064457      0.038614      0.005722
O	      4.30223      4.10309      2.02780         0.048825      0.092067     -0.055843
O	      4.15084      1.94636      4.19179        -0.015234     -0.198576      0.028503
O	      6.30564      4.10331      3.96899         0.253217      0.019643     -0.231586
O	      6.18646      1.88439      6.22596         0.062890      0.035756     -0.009428
O	      8.45956      4.12152      6.31042        -0.025066     -0.038513     -0.070442
O	      2.19999      4.08699      3.91371        -0.069183     -0.013849      0.158219
O	      4.20666      6.11489      4.32878        -0.092699      0.137712      0.135121
O	      4.22661      4.03001      6.20211        -0.074416      0.228266      0.118088
O	      6.29249      6.13958      6.32037        -0.134445     -0.038510     -0.114373
O	      6.45117      4.06641      8.32424        -0.227075     -0.098742      0.005413
O	      8.36561      5.95293      8.23409         0.089251      0.047446     -0.007193
O	      2.06452      6.16158      6.33394         0.073076     -0.007777     -0.008810
O	      4.20109      8.32517      6.24671         0.047887     -0.144362     -0.113902
O	      4.08242      6.15349      8.20480        -0.004859     -0.056529     -0.015304
O	      6.24842      8.27438      8.30375         0.135037      0.015034      0.038284
O	      6.26524      6.12531     10.41723        -0.096847     -0.001755     -0.060485
O	      8.38554      8.31420     10.34056         0.024195      0.146468      0.020997
