# total energy = -217.30839369 eV
 
CRYSTAL
PRIMVEC
0.011490 6.114906 6.546138 
6.216018 0.046648 6.513327 
4.173628 4.082252 0.002300 
PRIMCOORD
36 1
Li	      0.08214      6.08063      6.55183         0.016800      0.002054     -0.016843
Li	      4.18333      2.10118      2.36223         0.037173      0.029761      0.022202
Li	      4.12805      0.14912      4.41085         0.073618     -0.031771      0.059411
Li	      4.14890      4.07872      4.50843         0.019015      0.001663      0.021425
Li	      4.10579      2.13707      6.48348        -0.043390     -0.009674     -0.027108
Li	      6.11823      4.13967      6.52971         0.031617      0.006073     -0.015114
Li	      8.31329      6.09445     10.76103        -0.024781      0.024364      0.062912
Li	      2.15294      4.08300      6.49282        -0.014645      0.000348     -0.037418
Li	      4.10691      4.01087      8.52595        -0.064875      0.047888     -0.002884
Mn	      4.17943      6.08947      6.56646         0.009013     -0.063896     -0.021467
V	      8.23657      2.22291      6.46328         0.081872      0.119949     -0.029163
V	      6.22356      4.08074      2.21445         0.095991      0.000592     -0.180793
V	      6.22521      4.11510     10.85441        -0.202678      0.003815      0.107373
Cr	      6.18291      6.14059      8.72155        -0.013434      0.103230      0.011575
Cu	      6.14777      2.09199      4.36098         0.100568      0.021832      0.220071
Cu	     10.21974      6.16736      8.67826         0.021764     -0.085475      0.011896
Cu	      2.12102      4.06234      2.18173         0.094524     -0.008857     -0.053879
Cu	      2.20347      2.06199      4.39857         0.019975      0.053335     -0.013859
O	      8.14595      6.03767      8.67388        -0.011178      0.120650      0.047078
O	      2.22666      2.06315      1.86054        -0.023942     -0.076974     -0.134426
O	      4.43685      4.15930      2.06364        -0.005813      0.123288     -0.007571
O	      4.17258      2.10174      4.40610        -0.274464     -0.031133     -0.100216
O	      6.36539      4.24674      4.11820         0.016922      0.063026      0.240352
O	      6.42789      2.06633      6.40073        -0.118778      0.030834      0.022467
O	      8.36893      3.99576      6.54587        -0.039742     -0.081274     -0.053378
O	      1.97606      4.00350      4.25971         0.160757      0.023431      0.060044
O	      4.24424      6.18666      4.58002        -0.080203     -0.118331      0.037838
O	      4.14677      4.23221      6.52513        -0.005697      0.050509     -0.004338
O	      6.08990      6.14884      6.73978        -0.082639      0.030194      0.113931
O	      6.06538      4.09724      8.90163        -0.158499     -0.117032     -0.111085
O	      2.22561      6.20007      6.65940        -0.049232     -0.030239      0.012154
O	      4.09836      8.10737      6.36781         0.034169     -0.091718      0.003246
O	      4.09821      6.15892      8.53279         0.070008      0.027779      0.101935
O	      6.24519      8.20932      8.89868         0.007687     -0.063079     -0.247926
O	      6.20704      5.95448     10.79978        -0.017030     -0.026653     -0.040134
O	      8.35915      8.12320     11.12737         0.339549     -0.048510     -0.058304
