# total energy = -219.51991010 eV
 
CRYSTAL
PRIMVEC
-0.012799 6.178231 6.223223 
6.245130 -0.011221 6.221731 
4.159790 4.113996 -0.003861 
PRIMCOORD
36 1
Li	      6.28799      0.08650      6.22292         0.050289     -0.002511      0.004363
Li	      8.24035      2.01580      6.24744         0.032022     -0.035037      0.028131
Li	      6.17728      4.18652      2.09419        -0.042989      0.016574     -0.055830
Li	      4.17413      2.05394      2.15633         0.056349     -0.012455     -0.043728
Li	      6.16490      2.05917      4.20884        -0.009438     -0.025559      0.001789
Li	      2.14996      1.99341      4.13066         0.013392      0.031617     -0.012504
Li	      4.22477      2.06360      6.13313        -0.001187      0.080164     -0.007023
Li	      6.22945      4.14623     10.34047         0.032173      0.020351      0.023916
Li	      6.20812      6.14015      8.29676        -0.028178      0.015743     -0.024996
V	      8.37262      4.05346      8.15143         0.127245     -0.048772      0.020263
V	      4.16665      6.26261      6.16265         0.107533      0.056559      0.188695
V	      8.18767      8.24862      8.34281        -0.440255      0.069625     -0.190231
Cr	      4.20261      0.03520      4.17864         0.091761      0.098147      0.107894
Fe	      8.17582      6.18570     10.41108         0.069538     -0.097216     -0.054303
Co	      6.24840      2.06232      8.27555         0.103336     -0.102531     -0.050545
Co	      6.21220      8.16136      6.15608         0.068067      0.133298      0.068048
Cu	      4.26790      3.99632      4.10322        -0.045757     -0.008807      0.023452
Cu	      6.24554      4.07701      6.16952         0.063584     -0.033677     -0.069043
O	      1.93703      2.18359      2.06953        -0.093237     -0.039014     -0.041029
O	      4.06586      4.22857      1.98243        -0.042636      0.172584     -0.099571
O	      4.16773      2.02068      4.13145         0.075828     -0.114798      0.037473
O	      6.30120      4.07407      4.18024         0.089777      0.005573     -0.040127
O	      6.23856      2.13828      6.38833         0.007995      0.034889      0.107395
O	      8.41806      4.13891      6.29879         0.076037     -0.003541     -0.004910
O	      2.11897      4.17972      3.96609        -0.237198     -0.061033     -0.015639
O	      4.08067      6.08322      4.18172        -0.001676      0.058327     -0.127736
O	      4.07604      4.27361      6.36889        -0.101077     -0.038917      0.194784
O	      6.12289      6.11302      6.21619        -0.058980     -0.019492     -0.026211
O	      6.22516      4.00864      8.28535        -0.039148     -0.035969      0.021894
O	      8.42237      6.19388      8.34161         0.074271     -0.000576      0.009234
O	      2.14517      6.14405      6.15007        -0.023540      0.002310      0.054527
O	      4.15597      8.05164      6.28366        -0.077422     -0.117643     -0.087079
O	      4.18483      6.07855      8.33860        -0.076440     -0.044688      0.000606
O	      6.40748      8.17818      8.28514         0.236824      0.021893      0.030441
O	      6.23694      6.15998     10.39692        -0.092435      0.008129      0.011736
O	      8.35098      8.24226     10.29426         0.035571      0.016454      0.015863
