# total energy = -208.11378605 eV
 
CRYSTAL
PRIMVEC
0.019167 6.068657 6.686060 
6.043155 0.056911 6.644990 
4.079579 4.071593 -0.013388 
PRIMCOORD
36 1
Li	      1.91126      1.95779      0.12085         0.032861     -0.020715      0.093655
Li	      2.02668      6.15355      8.81574         0.014665      0.078518     -0.002784
Li	      6.08391      2.07312      4.51887        -0.024019      0.011771     -0.004382
Li	      4.10510      6.08218      2.27199         0.010438     -0.014952      0.058350
Li	      6.00533      6.15755      4.46260         0.061243     -0.001915      0.036359
Li	      4.18664      4.18965      4.43697        -0.011001     -0.030864     -0.033179
Li	      6.07977      4.02016      6.64262        -0.007815     -0.025905      0.011441
Li	      2.07081      6.03510      4.50374        -0.012763      0.028264     -0.037959
Li	      4.08858      6.13094      6.41453        -0.005129     -0.005526     -0.033909
Ti	      7.99144      4.18409      4.52284        -0.614041      0.189764     -0.051213
Mn	      4.10905      2.09061      2.23787        -0.225253     -0.074352      0.022988
Mn	      8.10483      8.12176      8.85284        -0.095742      0.053311      0.132238
Co	      4.11357     10.09420      6.69583        -0.039992      0.001332      0.031437
Co	      2.05284      4.06461      2.32725        -0.066257     -0.254224     -0.216117
Cu	      4.07418      2.08298      6.62374         0.052910     -0.165934     -0.042984
Cu	      4.08426      8.06852      4.43522        -0.101379      0.056311     -0.104819
Cu	      2.04398      4.09833      6.65937        -0.095415      0.132285     -0.010325
Cu	      6.07413      6.09115      8.84076         0.035322     -0.015938     -0.016106
O	      5.94860      4.13462      8.65499         0.617430     -0.064636     -0.118246
O	      8.01930      5.98383      8.92178         0.012277     -0.264408      0.079326
O	      1.95116      5.95873      6.73260        -0.054169      0.165199      0.043202
O	      2.19732      2.17879      2.12780         0.024290      0.160273      0.072566
O	      4.06211      4.02157      2.01935        -0.600310      0.115518      0.268098
O	      4.06518      2.03214      4.16892        -0.012368     -0.127600      0.028016
O	      6.16894      4.10406      4.54486         0.640321      0.001966     -0.014575
O	      6.00360      1.91269      6.58016        -0.084977     -0.013115     -0.020642
O	      8.16892      4.11655      6.49389         0.045440     -0.027460      0.081427
O	      1.85108      4.03517      4.22893         0.393531      0.007066     -0.428226
O	      4.04597      6.21485      4.40271        -0.002249     -0.118755     -0.047499
O	      3.92569      4.10216      6.86254         0.063992      0.015442     -0.109383
O	      6.20632      6.32899      6.52398         0.104574     -0.123728     -0.041032
O	      4.23261      8.13736      6.94198        -0.029750      0.023841     -0.031179
O	      4.09693      6.21378      9.09488        -0.108540      0.095722      0.047688
O	      6.12043      8.06382      9.09098         0.130801      0.049889      0.125833
O	      6.02892      5.93763     11.43003        -0.008825      0.095880      0.131230
O	      8.22556      8.24387     10.87280        -0.040100      0.067675      0.100704
