# total energy = -218.05379152 eV
 
CRYSTAL
PRIMVEC
-0.022389 6.036214 6.318915 
6.176879 -0.048101 6.344366 
4.094011 4.017124 -0.007419 
PRIMCOORD
36 1
Li	      6.08495      0.03093      6.27196         0.098080     -0.037239     -0.019137
Li	      8.22344      3.99035      4.35166        -0.012898     -0.095162     -0.013362
Li	      6.22965      7.88968     10.69181         0.089409      0.029420      0.024620
Li	      6.08478      1.97646      8.31715         0.050918      0.003171     -0.061184
Li	      8.15278      4.10328      8.29150        -0.001840     -0.031252     -0.088683
Li	      6.23302      3.95106      6.46050         0.069078     -0.059751      0.036914
Li	      8.16473      6.01343     10.40212        -0.044748     -0.080632     -0.018399
Li	      4.10325      6.00517      6.32807        -0.099231      0.034677      0.062531
Li	      6.25751      5.95598      8.45501        -0.036938      0.021013      0.000115
Ti	      6.05554      4.09096     10.48566        -0.250188      0.493140     -0.257417
Mn	      4.08582      7.95542      8.39955        -0.052638     -0.055191     -0.143738
Mn	      4.12512      4.03060      4.25002         0.196869      0.025074     -0.171324
Co	      4.13720      3.97457      8.42254        -0.029101      0.139748      0.129513
Co	      8.09515      2.02441      6.35437        -0.064851     -0.195923     -0.075935
Co	      6.13867      3.98332      2.15130         0.065740     -0.069743     -0.179466
Co	      2.06782      2.00114      4.24024        -0.021245     -0.102171      0.256081
Co	      4.13686      1.96198      6.33820         0.147432     -0.291621      0.285900
Co	      2.01735      4.06258      6.32498         0.137337     -0.371458     -0.132661
O	      2.14374      1.88513      2.25795         0.066596      0.041276     -0.695762
O	      4.19085      3.88325      2.28168        -0.106723      0.099448      0.170402
O	      4.01482      2.08348      4.33765         0.028672      0.010671     -0.007293
O	      6.04796      4.08418      4.11297        -0.262966     -1.077344     -0.040957
O	      6.10303      1.97226      6.31752         0.277163      0.057035      0.038326
O	      8.19511      4.03180      6.33764        -0.077950      0.099394     -0.025685
O	      2.13477      3.96295      4.25779        -0.117241      1.164046      0.741829
O	      4.22015      5.94314      4.21510         0.002924      0.004010      0.022881
O	      4.11068      3.94383      6.22173        -0.818603      0.268961     -0.008381
O	      6.25774      6.13185      6.16648        -0.118694      0.298943      0.679967
O	      6.16683      3.97470      8.58640         0.101942     -0.005169      0.283434
O	      8.19587      6.06573      8.23924         0.036152     -0.105083     -0.030504
O	      2.02382      5.96614      6.55238        -0.100933     -0.092926      0.167651
O	      4.07636      7.99156      6.19380         0.667065      0.123752      0.125807
O	      3.96403      6.02556      8.46556        -0.003154      0.000014      0.021347
O	      6.07152      8.06692      8.37304         0.032748      0.104076     -0.977932
O	      6.20100      5.89549     10.52561        -0.090114     -0.303550     -0.037899
O	      8.27905      7.96165     10.55904         0.241930     -0.043654     -0.061600
