# total energy = -212.01908764 eV
 
CRYSTAL
PRIMVEC
0.050440 6.216545 6.183889 
6.298050 0.032544 6.202118 
4.219867 4.177511 0.000485 
PRIMCOORD
36 1
Li	     10.43218      4.14412      6.20537        -0.080515     -0.124124      0.009875
Li	      8.44936      2.19361      6.17689         0.034293     -0.029605      0.024574
Li	      4.17076      2.13234      2.10783        -0.012374      0.022355      0.001754
Li	      8.43228      4.20707      4.19594        -0.050163      0.101334      0.017615
Li	     10.51880      6.28048      8.24709        -0.014213     -0.047725      0.014540
Li	      2.17143      4.12030      2.04401         0.012365      0.031532     -0.032505
Li	      4.15507      4.09211      4.12518         0.034603      0.125478     -0.012335
Li	      2.10771      4.17091      6.14277        -0.027562      0.007921     -0.057752
Li	      8.47601      8.32691      8.26678         0.008898     -0.047740     -0.058164
Ti	      6.19355      4.22291      2.07057        -0.620372      0.282056      0.254118
Mn	      6.36147      4.16153      6.20980        -0.215867      0.395707     -0.426162
Mn	      4.21940      6.26117      6.21097         0.338672     -0.433097     -0.152301
Fe	      6.38103      6.29473      8.32904        -0.094079      0.098963     -0.146093
Co	      2.14723      2.17628      4.12016         0.169379     -0.922495     -0.287394
Co	      8.45233      6.23872     10.27993         0.090164     -0.112218      0.039272
Cu	      6.39797      8.33834     10.34427         0.208483     -0.088425     -0.140356
Cu	      8.49010      6.21877      6.20454        -0.051398      0.074727     -0.057816
Cu	      4.22728      8.29451      4.12499         0.021850      0.006949      0.027292
O	      4.25437      8.15455      6.15755        -0.055052      0.369895     -0.162141
O	      8.48828      8.18412     10.31158        -0.076569     -0.264098      0.051520
O	      2.12337      1.96853      2.18417         0.054909      0.021021      0.342104
O	      4.36855      4.19266      2.00482         0.538551     -0.050316     -0.081714
O	      4.12190      2.12380      4.24778        -0.431576     -0.034891      0.213525
O	      6.35605      4.32339      4.12698         0.047625      0.609464     -0.019580
O	      6.35969      2.29865      6.09226         0.225608     -0.184494      0.009026
O	      8.24841      4.22320      6.20116         0.111386     -0.040082     -0.058421
O	      2.07974      4.12647      4.11081        -0.200814      0.212754      0.000661
O	      4.29674      6.31332      4.21259         0.249868      0.027377      0.301042
O	      4.38226      4.29674      6.15187         0.010040     -0.033068      0.094866
O	      6.19598      6.18696      6.16924        -0.149628      0.131427     -0.152494
O	      6.31672      4.25357      8.12043        -0.027150     -0.098974      0.208991
O	      8.34072      6.26942      8.17250         0.022695      0.044238      0.137445
O	      2.30052      6.18152      6.30266        -0.143185     -0.011222      0.003137
O	      4.27373      6.26963      8.11849        -0.011747     -0.025859     -0.015523
O	      6.35508      8.36613      8.39401         0.052585     -0.085551      0.093277
O	      6.33124      6.11458     10.30741         0.030289      0.070786      0.016117
