# total energy = -207.62828203 eV
 
CRYSTAL
PRIMVEC
-0.011804 6.431665 6.186820 
6.036893 -0.043682 6.219320 
4.039303 4.324697 -0.044862 
PRIMCOORD
36 1
Li	      6.01717      0.02726      6.23717         0.015438      0.047333      0.055105
Li	      5.98537      2.21426      8.30773         0.053115      0.078889      0.008018
Li	      2.00141      2.21084      4.16085         0.016178      0.031432     -0.046767
Li	      4.01999      4.25747      4.09727         0.022762      0.040068      0.004042
Li	      8.00211      6.50374      6.23465         0.033218      0.010969     -0.000110
Li	      6.06273      4.23496      6.24867        -0.070545     -0.008650      0.009007
Li	      6.04948      4.20622     10.23257        -0.035919     -0.057621      0.016317
Li	      6.07866      8.48550      6.11114        -0.022503     -0.041197     -0.064792
Li	      6.06822      6.34222      8.24114        -0.076026     -0.067198     -0.018268
Ti	      4.18033      6.33640      6.09136         0.337057     -0.227689     -0.215110
Mn	      8.03258      2.16003      6.21840        -0.014479     -0.109107     -0.258818
Mn	      4.06878      8.59207      8.23037         0.026607     -0.017504      0.049450
Fe	      7.97955      6.28390     10.26752         0.015272      0.245967      0.337507
Cu	      6.03089      4.30318      2.03788        -0.087493      0.098830     -0.097436
Cu	      4.04989     -0.00395      4.18836         0.072491      0.068263      0.141748
Cu	      6.03548      2.13576      4.14578        -0.154123      0.078361      0.162193
Cu	      8.00242      4.29948      8.27097        -0.054666     -0.085262      0.070334
Cu	      4.06247      4.15319      8.21638        -0.152439     -0.189821      0.141772
O	      5.94796      4.25442      8.27550         0.118358      0.021630     -0.065989
O	      8.06608      6.35671      8.31168        -0.020777      0.005151     -0.248841
O	      6.00469      8.48636      8.29387         0.047469      0.147720     -0.089010
O	      5.99168      6.51960     10.36904         0.030327     -0.258213     -0.032284
O	      2.10409      2.24181      1.94605        -0.153012      0.009846      0.235362
O	      4.10788      4.07477      2.06325         0.098344      0.013294     -0.041882
O	      4.06049      2.08199      3.98097        -0.218049     -0.137009     -0.020607
O	      6.16348      4.17773      4.01690         0.035436      0.021202      0.037180
O	      6.13870      2.13777      6.14599        -0.031298      0.033553      0.171169
O	      8.06922      4.08119      6.33542        -0.040667      0.152428     -0.259152
O	      1.97286      4.39535      4.00146        -0.020235     -0.096558      0.170244
O	      3.96031      6.45190      4.20912         0.036624      0.031753      0.184176
O	      3.98439      4.45540      6.26534        -0.015740      0.271431     -0.321381
O	      5.99179      6.48523      6.11517        -0.301067     -0.038251      0.031116
O	      2.02986      6.66133      6.15696        -0.037618     -0.092482     -0.025147
O	      3.96242      8.52066      6.28677         0.085846      0.004098     -0.096880
O	      3.92837      6.64741      8.12006         0.209818      0.047072      0.024747
O	      8.02260      8.57465     10.42287         0.252295     -0.032729      0.052990
