# total energy = -203.69508255 eV
 
CRYSTAL
PRIMVEC
0.002191 6.267221 6.172879 
6.300455 -0.011530 6.185790 
4.181454 4.168459 0.011052 
PRIMCOORD
36 1
Li	      0.03060      6.23195      6.14828        -0.043988      0.039275     -0.011372
Li	      2.18671      6.18877      8.18993         0.009345     -0.006558      0.092921
Li	      4.32383      8.26835      8.25401         0.047266     -0.017410      0.070877
Li	      6.22986      8.36001     10.18715        -0.091529      0.078586      0.017499
Li	      6.37208      6.20528      4.20997        -0.000593     -0.046589      0.033774
Li	      8.23453      6.28990      6.15064        -0.039985      0.156323     -0.124127
Li	      6.29258      4.29585      6.16602        -0.183446     -0.000441     -0.141165
Li	      6.30538      8.25337      6.26685         0.290583     -0.030261      0.003324
Li	      4.23429      6.25913      6.26114         0.044760     -0.199711      0.075301
Ti	      4.28430      8.31343      4.24217         0.260734      0.091947     -0.340394
V	      6.30363      1.97186      8.10051         0.084022     -0.330848      0.841380
Co	      8.40371      8.33121     12.33545         0.080989      0.183451      0.114313
Co	      8.31083      4.21941      4.13528        -0.434794      0.438582      0.384304
Co	      4.36457      4.02183      4.32149         0.275031      0.095929     -1.222351
Ni	      8.34574      4.19551      8.18307         0.154206     -0.074053     -0.107535
Ni	      2.09226      6.27870      4.17307        -0.062987     -0.066777      0.066834
Ni	      6.20957      6.29038      8.19752        -0.076421     -0.036893      0.186359
Ni	      4.14493      4.19599      8.15208        -0.028999      0.098684     -0.228455
O	      6.27634      6.26106      6.36679         0.040741      0.023711     -0.335410
O	      1.88437      2.17286      1.94596        -0.023811     -0.127659     -0.329141
O	      4.13886      4.35786      2.17898         0.087311      0.121090     -0.003920
O	      4.18741      2.13772      4.11731         0.091624      0.218530      0.217585
O	      6.31114      4.16026      4.11654        -0.775232     -0.100131      0.179595
O	      6.21187      2.04740      6.36354         0.724370      0.039493     -0.677022
O	      8.37084      3.97243      6.11994         0.110947     -0.365751      0.169482
O	      2.02295      4.22719      4.05807        -0.302794     -0.117560      0.253858
O	      4.21144      6.35084      3.99731         0.036199      0.159985     -0.006750
O	      4.17526      4.25101      6.09050        -0.043291     -0.096032      0.460979
O	      6.25503      4.10127      8.29267         0.045458     -0.075866      0.149367
O	      8.53994      6.27342      8.28615         0.187281     -0.057899     -0.066532
O	      2.05461      6.50203      6.15527         0.040980      0.267602      0.099737
O	      4.21665      8.38652      6.09015        -0.997090     -0.099913      0.143838
O	      4.18476      6.21543      8.38903         0.042186      0.020166     -0.582365
O	      6.35981      8.19489      8.22263        -0.130927      0.108937      0.008828
O	      6.23536      6.14769     10.16964         0.538021     -0.319898      0.189767
O	      8.50290      8.32255     10.37116         0.043831      0.027958      0.416616
