# total energy = -89.21791196 eV
 
CRYSTAL
PRIMVEC
0.000224 2.036172 2.039868 
2.225407 -2.065271 0.027361 
11.319942 12.732642 0.027606 
PRIMCOORD
16 1
Li	      2.48466      2.12942     -0.11146        -0.001710     -0.018624      0.016853
Li	      4.49093      2.14700     -2.15374         0.006835      0.006792     -0.007353
Li	      4.28562      6.27239     -2.19247        -0.014123      0.000289      0.001481
Li	      9.04003     10.55830     -6.48573         0.004259      0.006617     -0.005496
Mn	     11.28881     12.70095    -10.66779         0.015961      0.032124     -0.035503
Mn	      6.80277      6.38665     -4.35033        -0.008537     -0.026040      0.027444
Ni	      9.20189      6.49949     -6.50016        -0.040103     -0.064303      0.064487
Ni	     11.11871     10.51782     -8.48394         0.049870      0.077739     -0.077148
O	     11.15543     12.74003     -8.67009         0.024276      0.048606     -0.040554
O	      8.96387      8.44671     -6.40804         0.082079      0.133149     -0.136055
O	     11.35923      8.57174     -8.57691        -0.091734     -0.138302      0.141301
O	      6.93723      8.38171     -4.30611        -0.013716     -0.035252      0.028930
O	      4.50366      4.28282     -2.24529         0.004055     -0.000899     -0.004263
O	      6.88040      4.46020     -4.46333         0.000591     -0.013444      0.005189
O	      2.11663     -0.16956      0.17520        -0.012290     -0.006290      0.015978
O	      2.26172      4.11493     -0.05297        -0.005716     -0.002162      0.004708
