# total energy = -207.57767236 eV
 
CRYSTAL
PRIMVEC
0.018404 6.221705 6.233051 
6.152214 0.031153 6.219951 
4.100156 4.137989 0.022206 
PRIMCOORD
36 1
Li	     10.18779      4.13452      6.24734        -0.033604      0.130477      0.082633
Li	      8.13608      2.15513      6.26608        -0.149385      0.012835      0.071223
Li	      6.10699      2.12410      4.23809         0.001183     -0.016078     -0.036114
Li	      6.13523      2.13623      8.19280        -0.047888     -0.005481     -0.022042
Li	      4.08615      4.14817      4.21427        -0.036800     -0.002308     -0.087164
Li	      4.22194      2.08931      6.23209         0.019085      0.044129      0.041708
Li	      6.13844      8.25936      6.30649         0.148139      0.023256     -0.006860
Li	      4.12960      6.24327      6.26032        -0.035332     -0.240841     -0.000262
Li	      6.18280      6.28069      8.33949         0.021469     -0.084424     -0.004899
Ti	      2.00819      6.26101      4.29053        -0.063296     -0.204651      0.203183
V	      6.10179      6.19687      4.20347        -0.022166      0.114751      0.368334
Co	      4.12927      8.25561      8.23012         0.231373      0.534270     -1.040953
Co	      4.14404      6.24476     10.36077        -0.028363     -0.032558      0.152662
Co	      8.19207      4.23573      8.25755         0.223858     -0.069683     -0.048508
Co	      4.06407      4.14562      8.19820         1.045235     -0.055432      1.159658
Ni	      2.00531      6.20815      8.20572        -0.159955      0.104493     -0.049895
Ni	      4.11247      8.29351      4.28654         0.099564     -0.012293     -0.281782
Ni	      6.19986      4.12304      6.22480        -0.186785      0.082463      0.165057
O	      1.99577      2.07797      2.23954         0.356148      0.071828     -0.340607
O	      3.95744      4.00168      2.04922         0.562569      0.155597      0.268188
O	      4.03772      1.94116      3.96118         0.021530     -0.049658      0.223804
O	      6.27951      4.23135      4.09511        -0.041136      0.059379     -0.036437
O	      6.16052      2.27314      6.21110         0.076748     -0.295301     -0.059362
O	      8.11646      4.17432      6.11101         0.201159     -0.092794     -0.279625
O	      2.05623      4.15907      4.16835         0.076489      0.090824      0.229629
O	      4.09191      6.22390      4.21722        -0.023789     -0.093647      0.017608
O	      4.29107      4.15552      6.35527        -0.490347     -0.008210     -0.128477
O	      6.23198      6.13714      6.01717        -0.064567      0.187217     -0.028628
O	      6.29811      4.22328      8.33253        -0.796684      0.084023      0.088632
O	      8.23362      6.25203      8.48849        -0.055246      0.156098     -0.230793
O	      2.04452      6.23365      6.14179         0.004169      0.097055     -0.384738
O	      4.11206      8.22681      6.38158        -0.090477     -0.047007      0.495303
O	      4.10303      6.23872      8.41662         0.133895     -0.392902     -0.017876
O	      6.24942      8.35169      8.29187        -0.690287     -0.203691     -0.116744
O	      6.17631      6.23793     10.43059         0.089801      0.081601      0.065985
O	      8.25829      8.32299     10.29926        -0.296307     -0.123340     -0.431844
