# total energy = -211.15996837 eV
 
CRYSTAL
PRIMVEC
0.053174 6.003194 6.541722 
6.142490 0.034865 6.559297 
4.094141 4.013480 0.022996 
PRIMCOORD
36 1
Li	      4.07152      4.00658      0.15323        -0.067921      0.034834     -0.071395
Li	      6.09462      4.00805      2.23481         0.033839      0.110878     -0.046659
Li	      8.21153      4.06930      4.63150         0.021437     -0.061113      0.128186
Li	      8.26282      4.04089      8.67118        -0.032472     -0.078389     -0.103159
Li	      4.06348      3.99738      4.22373        -0.030739      0.029632      0.067688
Li	      6.20349      4.00687      6.51754         0.099371     -0.032149      0.022166
Li	      2.11297      6.00913      4.37499        -0.017251      0.062556      0.129967
Li	      2.02457      4.02755      6.40234         0.010466      0.019756     -0.059768
Li	      6.22522      6.06973      8.77543         0.007151     -0.059383      0.012034
Ti	      6.22906      4.17896     10.86525        -0.110580      0.411567      0.114063
V	      4.11152      5.88528      6.59666        -0.291670      0.065738     -0.441756
Co	      8.16438      2.10408      6.57571         0.381136     -0.523719     -0.273679
Co	      6.15813      2.04388      4.43790         0.267891     -0.075784      0.298801
Co	      4.11209      5.92992      2.23018         0.131587      0.023749     -0.184872
Co	      6.19273      5.87761      4.36777        -0.073143     -0.025483      0.038763
Co	      8.19065      5.99055      6.58451        -0.123565     -0.179391      0.068795
Cu	      4.14199      2.07443      2.21956        -0.092445      0.019093      0.006371
Cu	      8.14681      8.03227      8.84002        -0.033598      0.037574     -0.054881
O	      2.06737      2.01265      2.09527        -0.168901     -0.061559     -0.006635
O	      4.11662      3.99540      2.19356         0.003962      0.130137      0.079893
O	      4.19996      2.02557      4.59905        -0.863514     -0.028366     -0.456524
O	      6.19495      4.04861      4.37305         0.025755      1.015354     -0.106040
O	      6.22389      2.02196      6.41119         0.090302      0.066051      0.053143
O	      8.16678      3.98831      6.63176        -0.025719      0.312884      0.139894
O	      1.95782      3.89729      4.32667        -0.079905     -0.084018     -0.033141
O	      4.14428      6.06126      4.49289         0.076968     -0.071851     -0.194233
O	      4.06574      4.12199      6.46029        -0.032130      0.053186     -0.031402
O	      6.03189      6.03124      6.41816        -0.079717      0.118456      0.017559
O	      6.01739      4.01939      8.96125         0.043329     -0.183017      0.013480
O	      8.24167      6.09888      8.55016         0.199495      0.136050      0.194261
O	      2.26934      6.08177      6.50736         0.087020      0.080241      0.040376
O	      4.05925      7.94477      6.38188        -0.122586      0.025376      0.208971
O	      4.19390      6.06849      8.41609         0.029119     -0.029326      0.390120
O	      6.20759      8.04447      9.05314        -0.017587     -0.066785     -0.098764
O	      6.22546      6.05594     10.93900         0.017800     -1.176874     -0.164251
O	      8.19089      8.08138     11.15153         0.736814     -0.015906      0.302629
