# total energy = -207.42610778 eV
 
CRYSTAL
PRIMVEC
0.027638 6.089499 6.196745 
6.326888 -0.010060 6.234633 
4.221968 4.089241 -0.010892 
PRIMCOORD
36 1
Li	      8.32294      2.03635      6.15570        -0.007831     -0.012782      0.034138
Li	      4.26200      2.07900      2.13570         0.024158      0.038047     -0.046835
Li	      6.24015      2.01473      4.22755        -0.013961      0.075077      0.000390
Li	      6.31767      2.02349      8.24756        -0.013720     -0.022307     -0.023024
Li	      4.29285      2.06343      6.16221         0.007628      0.041924      0.018489
Li	      6.21036      4.05279      6.26226        -0.078099      0.013904     -0.001236
Li	      4.32752      6.07062      6.11135         0.026243     -0.010101      0.035344
Li	      8.55931      8.05728      8.34517         0.016274      0.003467      0.004840
Li	      6.35240      6.09923      8.24998        -0.008889      0.008927     -0.026022
Ti	      8.36088      4.21153      8.19824        -0.085627      0.243291     -0.024942
V	      2.37266      6.13391      8.26776        -0.125112     -0.172702      0.150552
Fe	      6.38062      8.03021      6.24158        -0.045700      0.168264     -0.042368
Co	      4.22795      4.02146      4.13301        -0.115305      0.085559     -0.141427
Co	      6.35448      4.06373     10.36722         0.040948     -0.018509     -0.031862
Ni	      6.32471      0.02242      6.24167         0.049383     -0.105524      0.122670
Ni	      8.47018      6.19733     10.37908        -0.018787     -0.103792     -0.004245
Ni	      8.48743      4.07655      4.24188        -0.163582      0.177330     -0.042103
Ni	      6.31489      6.08431      4.19082         0.000050      0.013818     -0.067638
O	      2.10123      1.86150      2.08537        -0.032876      0.189285     -0.069945
O	      4.11374      4.04777      2.18137        -0.105803      0.016668      0.118941
O	      4.12784      2.08741      4.12134         0.149176     -0.005422      0.068717
O	      6.35237      4.04642      3.96825         0.213621     -0.055285     -0.115397
O	      6.32629      1.88241      6.22103        -0.007111      0.229594     -0.032967
O	      8.49748      4.04447      6.32490        -0.060287      0.035420      0.179225
O	      2.02188      4.08515      4.08744        -0.167050      0.018872     -0.016304
O	      4.21675      6.11415      4.13468        -0.081817     -0.092636     -0.027418
O	      4.14316      4.06402      5.99428         0.139495      0.026128      0.089026
O	      6.29002      6.15505      6.22830         0.032636     -0.240206      0.110126
O	      6.46442      4.04272      8.38267         0.201665     -0.013014      0.052251
O	      8.41693      6.03157      8.31703        -0.018925     -0.264612     -0.087237
O	      2.05548      6.07695      6.35736         0.088957      0.055558     -0.026269
O	      4.36087      8.27860      6.06176        -0.112822     -0.169922     -0.098756
O	      4.11340      6.10583      8.27655         0.212343      0.047600     -0.075362
O	      6.36435      8.33951      8.21273        -0.018136     -0.117754      0.034603
O	      6.36810      6.00612     10.42468        -0.037897     -0.060120     -0.050436
O	      8.67802      8.17443     10.34610         0.116762     -0.024043      0.032483
