# total energy = -218.19546819 eV
 
CRYSTAL
PRIMVEC
0.008380 6.121946 6.321387 
6.195948 -0.043177 6.373179 
4.121066 4.106038 -0.019283 
PRIMCOORD
36 1
Li	      6.18959      0.15217      6.29759        -0.031379      0.004845      0.019591
Li	      8.06476      2.08676      6.33117         0.047294      0.040865     -0.022842
Li	      2.04538      6.10367      8.37231        -0.006803      0.036172      0.029724
Li	      6.24726      1.97417      4.40863        -0.038353      0.082695      0.053878
Li	      6.18809      1.98128      8.29150        -0.000004     -0.020505     -0.004699
Li	      2.12595      1.97583      4.18796         0.065462     -0.075038      0.011505
Li	      8.36814      6.07947      6.44764        -0.031915      0.005435     -0.016299
Li	      8.16598      8.05916      8.56389         0.006163      0.030920      0.035318
Li	      6.22376      6.17829      8.49806        -0.039096     -0.057079     -0.018800
Ti	      4.15080      6.10695      6.43333         0.149616      0.108763      0.338871
V	      8.21815      4.05236      8.39768         0.220413     -0.053594     -0.263930
V	      4.20200      4.00801      4.17347         0.340164     -0.208814      0.061370
Cr	      6.20793      4.04870     10.56339        -0.075052     -0.247104      0.225269
Co	      4.16239      8.19137      8.36069        -0.080402      0.025002      0.083808
Co	      6.19133      8.14004      6.32975        -0.024211     -0.179375     -0.036312
Cu	      4.23031      6.15298     10.57624        -0.106010      0.189350      0.094226
Cu	      8.20966      6.15407     10.60108        -0.069951      0.168740      0.000620
Ni	      6.19977      3.98571      6.41850        -0.017910      0.160674     -0.051600
O	      2.20053      2.19990      2.10375         0.109780     -0.025346     -0.089634
O	      4.10209      4.00212      2.21810        -0.082006      0.090342     -0.057549
O	      4.17568      2.03860      3.96505         0.014673      0.015294      0.860131
O	      5.99290      4.11400      4.28407        -0.091587     -0.000418     -0.080580
O	      6.15805      2.05485      6.35903         0.029532     -0.216974      0.035540
O	      8.20523      4.12776      6.51722         0.130968     -0.025476      0.229162
O	      2.15600      3.94568      4.30408        -0.102597      0.030783      0.059277
O	      4.05146      6.10461      4.32511         0.185617      0.041604      0.005091
O	      4.03849      4.09884      6.26816        -0.133875      0.055668      0.041521
O	      6.07952      6.14093      6.33117        -0.223744      0.124206      0.013191
O	      6.29510      3.99812      8.56407        -0.111105     -0.005135      0.056275
O	      8.28107      5.91373      8.62274        -0.022548      0.173376     -0.051655
O	      2.13228      5.98450      6.24306         0.028317     -0.034713      0.089904
O	      4.23774      8.11320      6.30193         0.059277     -0.104608     -0.926274
O	      4.05799      6.24178      8.30414         0.000781     -0.141675     -0.534107
O	      6.08330      8.17691      8.21470        -0.072872      0.074435     -0.182814
O	      6.24766      6.01753     10.57279        -0.019400      0.165201     -0.001065
O	      8.37699      8.33389     10.55148        -0.007234     -0.228511     -0.006111
