# total energy = -221.65362901 eV
 
CRYSTAL
PRIMVEC
-0.015481 6.307904 6.263270 
6.282685 -0.042658 6.290337 
4.174451 4.208962 -0.014106 
PRIMCOORD
36 1
Li	      2.16339      8.28690      6.39458         0.038422      0.003994     -0.006474
Li	      2.03535      0.15278      1.88589         0.049771      0.039777      0.018119
Li	      0.11817      2.06706      2.15031        -0.004019      0.027080      0.027255
Li	      2.13775      4.10380      2.11707        -0.013139      0.009818      0.027017
Li	      1.97770      2.16465      4.06271         0.011737      0.072883      0.048022
Li	      8.37055      6.29609      6.35715        -0.028319     -0.016691      0.002787
Li	      4.29769      8.23438      4.31272         0.023622     -0.043722      0.015768
Li	      1.97740      4.35183      6.24619         0.031621      0.018286     -0.029173
Li	      4.00525      6.38605      6.18964         0.017121      0.028898      0.020913
Ti	      8.34555      4.19111      4.21008        -0.036033     -0.041965      0.134195
V	      6.26255      2.10465      4.21802        -0.085289      0.021809     -0.004918
V	      6.25874      4.21490      6.27817        -0.068448      0.088644     -0.003746
Cr	      6.27105      6.21073      8.35935         0.040205      0.027658     -0.020235
Fe	      8.32917      8.31514      8.26649        -0.041062      0.038956      0.006952
Co	      4.10986      2.13621      2.02813        -0.121726     -0.010478     -0.099381
Co	      3.96887      4.36046      4.06640        -0.064143      0.082908     -0.056245
Ni	      4.23382      4.17827      0.07673        -0.045728      0.103908      0.015844
Ni	      2.12269      6.29265      4.22958         0.016242      0.011617     -0.056097
O	      2.26845      2.10675      2.09386         0.147039      0.034136     -0.041703
O	      4.22229      4.22781      2.15543        -0.017589     -0.039035      0.151865
O	      4.26170      1.98606      4.04561        -0.030968     -0.179460     -0.026859
O	      6.34864      4.18165      4.25769         0.121571     -0.040211      0.020570
O	      6.27766      2.22571      6.18268         0.012452     -0.006755     -0.105097
O	      8.35013      4.20391      6.11259        -0.077444     -0.017347     -0.243003
O	      2.15056      4.18569      4.22764         0.180371     -0.004766     -0.029503
O	      4.16956      6.26251      4.17180         0.091117     -0.112065     -0.007210
O	      4.29933      4.14132      6.28378         0.053648     -0.018980     -0.049844
O	      6.32805      6.04999      6.36753        -0.026744     -0.107731      0.028214
O	      6.21659      4.18446      8.27003        -0.033663      0.053289     -0.044721
O	      8.24962      6.35850      8.43122        -0.043515     -0.070469     -0.109164
O	      2.00987      6.33362      6.20359         0.119417      0.052871      0.128508
O	      4.16420      8.46829      6.40790        -0.048270     -0.135770      0.151641
O	      4.23496      6.15559      8.45658         0.021637      0.029584      0.133669
O	      6.24067      8.25006      8.41436        -0.008064     -0.050905      0.059935
O	      6.17890      6.30584     10.42733        -0.153292     -0.003212     -0.066846
O	      8.26318      8.47692     10.34755        -0.028535      0.153444      0.008941
