# total energy = -218.66410428 eV
 
CRYSTAL
PRIMVEC
0.029802 6.495014 6.129861 
6.321854 0.009009 6.150522 
4.189653 4.319608 0.030018 
PRIMCOORD
36 1
Li	      4.10134      2.09692      2.11447         0.039958      0.035164      0.094837
Li	      8.35337      4.26892      4.15835         0.018896      0.044205     -0.029030
Li	      4.30390      6.36810      2.15262        -0.094001     -0.122910     -0.001355
Li	      2.01276      2.21080      3.98027         0.048982     -0.026243      0.124814
Li	      4.15567      4.51160      4.02561         0.036639     -0.022412      0.015848
Li	      2.21216      6.40247      4.09576        -0.002541      0.017234     -0.015220
Li	      2.05986      4.46286      6.03012         0.037449     -0.077246      0.055682
Li	      4.07677      6.43210      6.10153         0.031352     -0.121098      0.000218
Li	      4.27882      4.39523      8.23328         0.017624      0.060637     -0.052190
Ti	      6.26545      6.62938      8.26962        -0.457082      0.005181     -0.189603
V	      4.18413      4.23380      0.13846        -0.203066      0.110239     -0.149334
V	      4.14987      2.44096      6.12225         0.151078      0.180115     -0.210581
Cr	      6.41833      8.66446     10.26772        -0.090184      0.178810      0.049060
Fe	      4.20402      8.42104      4.06461        -0.168064      0.159444     -0.055214
Cu	      6.39795     10.80117      8.28240        -0.142284     -0.212184      0.063528
Cu	      2.06871      4.25896      2.11615         0.174958     -0.068611     -0.013709
Cu	      6.37653      4.37963      6.11431        -0.318511      0.100986     -0.116424
Ni	      2.11933      8.59507      6.19497        -0.125178      0.071281     -0.035849
O	      2.12859      1.93610      2.04528        -0.021816      0.230389      0.188184
O	      4.03991      4.28208      1.98776         0.046735     -0.057404      0.242772
O	      4.34863      2.10587      4.32706         0.010869     -0.012277     -0.110600
O	      6.35698      4.15910      4.15513         0.045557      0.079310     -0.333485
O	      6.22188      1.93457      6.14291         0.107132     -0.220839     -0.032938
O	      8.41034      4.32464      6.25725         0.276072     -0.037224      0.106223
O	      1.98485      4.33582      4.04356         0.056002      0.027128      0.067930
O	      4.17499      6.55281      4.14128         0.003828     -0.163076     -0.023755
O	      4.36025      4.20363      6.09454        -0.075206      0.085662     -0.024451
O	      6.54594      6.63931      6.18102        -0.152676      0.077533      0.042157
O	      6.38850      4.55949      8.17713        -0.034063      0.029269      0.244170
O	      8.38911      6.60097      7.98145         0.006340     -0.043314      0.258835
O	      1.95784      6.49324      6.25980         0.246803     -0.060438     -0.012015
O	      4.17389      8.88790      6.04302         0.077400     -0.148663      0.004874
O	      4.46771      6.49866      8.06806         0.349167      0.102566      0.057653
O	      6.35816      8.60400      8.27294         0.031018     -0.136305     -0.017496
O	      6.37719      6.59932     10.20497         0.055888     -0.056115     -0.110805
O	      8.44914      8.66715     10.30504         0.014923     -0.008792     -0.082729
