# total energy = -93.27918511 eV
 
CRYSTAL
PRIMVEC
2.031902 4.076308 2.031949 
2.076670 -4.120908 2.076673 
4.113074 -0.000026 -4.113139 
PRIMCOORD
16 1
Li	      6.07388     -0.01799     -2.00799         0.006677      0.046709     -0.220244
Li	      4.08578      1.99562      1.99038        -0.031923      0.111611      0.021858
Li	      4.09065     -0.01950     -0.02251        -0.137383      0.055371     -0.053939
Li	      4.06094     -2.03729     -2.00101        -0.064584      0.001264     -0.049663
Mn	      8.12793     -0.04422      0.00483         1.405942     -0.025511      0.034296
Mn	      4.09104     -2.06154      2.02935         0.062536     -0.837432      0.446439
Ni	      6.11720     -0.04402      2.01582         0.191545      0.034390      0.565902
Ni	      6.10214     -2.06147      0.01889         0.398668     -0.415484     -0.162046
O	      6.24903     -0.02084      0.00072        -0.166452      0.313312     -0.288842
O	      3.91363      1.99557     -0.02203         0.199660      0.122329      0.046344
O	      4.06470     -0.02229     -2.18436        -0.055381     -0.077848     -0.326436
O	      4.07122     -0.15822      2.14032        -0.294572      0.377135      0.200117
O	      4.08669     -2.03862      0.15030        -0.238166      0.023814     -0.480719
O	      2.01948      2.13269      1.90894        -0.231533      0.347542      0.264669
O	      1.92418      0.11523     -0.00668        -0.507229      0.071473     -0.035111
O	      2.15495     -2.17648      2.04511        -0.537806     -0.148674      0.037375
