# total energy = -241.05723536 eV
 
CRYSTAL
PRIMVEC
0.020054 6.329386 6.232441 
6.479082 0.004505 6.247942 
4.346064 4.255717 -0.022733 
PRIMCOORD
36 1
Li	      0.11762      6.32462      6.25730         0.064833     -0.026794     -0.011047
Li	      8.57125      4.31255      8.33926        -0.039689      0.012261      0.016902
Li	      4.28025      4.27570      4.27028         0.011193     -0.042664     -0.012482
Li	      8.61225      6.47971      6.28465         0.002799     -0.026932     -0.017171
Li	      2.25387      6.26530      4.12457        -0.010833     -0.033983      0.038835
Li	      2.39568      4.19661      6.20987         0.102583     -0.028672      0.006096
Li	      4.36492      6.22378      6.24882        -0.008067      0.017619      0.028152
Li	      4.33827      4.12098      8.20553        -0.014103      0.011887      0.012213
Li	      6.74030      6.34557      8.19681         0.069783     -0.007959     -0.011632
Ti	      2.21327      2.15264      0.04712         0.081228      0.038688     -0.074590
Ti	      6.47783      8.27103     10.30988        -0.109803     -0.176867     -0.158866
Mn	      2.18922      6.32812      8.25540         0.043315     -0.008557      0.006715
Mn	      0.04703      4.20341      4.12382        -0.030339      0.065314      0.018966
Mn	      4.34845      6.32710     10.37385         0.010122      0.030110     -0.029307
Mn	      6.47748      6.41041      4.16206         0.024888     -0.030405     -0.011183
Mn	      6.40108      4.27574      6.29841         0.010366      0.019180     -0.040170
Fe	      4.36580      8.51594      8.23989         0.056236      0.084974     -0.000610
Fe	     10.59594      6.28356      8.34789         0.157734     -0.030398     -0.091913
O	      2.11517      2.21317      2.07014        -0.070889      0.046978     -0.048412
O	      4.51578      4.26920      2.00607         0.031562      0.059441      0.014482
O	      4.56737      2.16125      4.18494         0.222673     -0.006018      0.073624
O	      6.50728      4.36330      4.02043        -0.047891     -0.003042     -0.024610
O	      6.56599      2.23084      6.20187         0.017953     -0.035387      0.047226
O	      8.42761      4.10486      6.25574        -0.051347     -0.076867      0.045269
O	      2.14352      4.04995      4.24199         0.036979      0.051827      0.003463
O	      4.30764      6.41122      4.06101         0.015615      0.069305      0.129783
O	      4.51941      4.24798      6.25596         0.002555     -0.001859     -0.019974
O	      6.52968      6.22715      6.10846         0.007698      0.051767      0.027601
O	      6.44923      4.16116      8.44306        -0.001716      0.019455      0.043231
O	      8.75243      6.28109      8.29291        -0.235984      0.001757     -0.007100
O	      2.15600      6.51676      6.32040        -0.022225      0.096501     -0.027439
O	      4.15087      8.56552      6.08008        -0.226392      0.020103     -0.071379
O	      4.14147      6.49699      8.27609        -0.070541     -0.162755     -0.048815
O	      6.57294      8.42715      8.43014         0.056246     -0.077374      0.138363
O	      6.52017      6.40515     10.40828         0.025043      0.120464     -0.017409
O	      8.52245      8.43811     10.53578        -0.111584     -0.041101      0.073188
