# total energy = -231.73882698 eV
 
CRYSTAL
PRIMVEC
0.027093 6.305740 6.149096 
6.382601 0.027235 6.149252 
4.273012 4.221960 0.000188 
PRIMCOORD
36 1
Li	      2.13146      0.17686      2.04277         0.057284     -0.057668     -0.029862
Li	      4.06445      2.11810      2.03801         0.017532     -0.059335     -0.080359
Li	      6.43017      8.43436     10.19608         0.034145     -0.034828     -0.031875
Li	      0.06236      2.09067      2.05653        -0.051051      0.000834     -0.015130
Li	      2.15753      4.16980      2.04384         0.002790      0.058409     -0.020352
Li	      2.12649      2.11308      3.97032        -0.042954     -0.035535      0.103728
Li	      8.48464      6.32117      6.24503        -0.016349      0.005502     -0.005872
Li	      6.40798      4.29658      6.18461        -0.037342      0.105065     -0.004175
Li	      8.53873      6.30923     10.16637         0.050085     -0.028965      0.040446
Ti	      4.40581      4.05145      3.98812         0.256363     -0.098807      0.201754
Ti	      0.08497      4.08295      4.00314         0.014439     -0.096637      0.085004
Mn	      4.21052      0.06747      4.08800         0.007282      0.030317     -0.149029
V	      6.38017      0.17221      6.19212         0.014941     -0.304978     -0.088405
V	      6.42883      8.42548      6.25700        -0.070987     -0.177195     -0.218234
Co	      8.57665      8.35289      8.20026         0.002179      0.026223     -0.132856
Co	      6.51498      6.32421      8.20955        -0.086805     -0.002110     -0.045834
Co	      4.26049      6.35182      6.20662         0.123905      0.151700     -0.194570
Cu	      2.11135      2.14150      0.09042        -0.105432     -0.142582     -0.094756
O	      2.13143      2.13027      1.95665        -0.095439      0.042815      0.084042
O	      4.24600      4.22833      2.08957         0.001002     -0.020431      0.135973
O	      4.27211      2.18085      4.05320        -0.025842      0.080586     -0.016244
O	      6.25700      4.19912      4.12471        -0.324646     -0.030682     -0.069711
O	      6.34273      1.91179      6.13734        -0.003660      0.306993     -0.000182
O	      8.64994      4.24186      6.02590         0.007941      0.107054      0.019502
O	      2.07977      4.19404      4.21057        -0.036532     -0.034722     -0.124386
O	      4.25485      6.39922      4.14576         0.071446      0.085528      0.217840
O	      4.15521      4.24477      5.99482        -0.008855     -0.063206     -0.062710
O	      6.32622      6.44269      6.16622        -0.336009      0.020088     -0.030479
O	      6.42130      4.20684      8.30147         0.026934     -0.034889      0.117061
O	      8.48106      6.40536      8.20775         0.073320     -0.066212      0.020396
O	      2.08030      6.22043      6.16117         0.252174     -0.006151      0.013570
O	      4.44456      8.54530      6.11422         0.049768      0.073524      0.019819
O	      4.33514      6.24448      8.29621         0.062299      0.002741     -0.139452
O	      6.46636      8.45720      8.05482         0.008827      0.032309      0.396041
O	      6.42445      6.22923     10.34351         0.004975     -0.059847      0.073038
O	      8.69636      8.53560     10.36322         0.102273      0.225088      0.026258
