# total energy = -231.30823741 eV
 
CRYSTAL
PRIMVEC
0.028383 6.265770 6.216309 
6.362845 0.009643 6.234780 
4.239746 4.188284 0.007961 
PRIMCOORD
36 1
Li	      6.40416      6.33746     12.33200         0.046310     -0.000091      0.037218
Li	      8.42870      8.35251     12.36689        -0.029825     -0.021576      0.001466
Li	      2.13623      0.03606      2.10302         0.019151      0.014003     -0.008414
Li	      6.50996      8.27005     10.44479        -0.017896     -0.025629      0.045983
Li	      4.25747      4.17395      4.15756         0.011982     -0.001575      0.055757
Li	      6.41500      4.14986      6.27038         0.001274     -0.052837      0.029396
Li	      6.34986      4.28249     10.32085        -0.002678     -0.026089      0.052582
Li	      8.30094      6.37618     10.34830        -0.118015      0.080665     -0.013745
Li	      6.43117      6.20178      8.42589         0.023692     -0.042307     -0.009266
Ti	      4.40354      8.50314      8.27521         0.353013      0.124484     -0.290887
Ti	      4.13238      6.22816      6.21566        -0.433100     -0.058673     -0.021807
V	      6.37189      2.11836      8.29291        -0.050493      0.021598     -0.055402
V	      6.37063      6.21554      4.15061        -0.030849      0.012746     -0.094776
Fe	      8.65555     10.34105     10.46208        -0.104639      0.005359     -0.015658
Fe	      8.53555      6.26775      6.27240        -0.036159      0.146568      0.051630
Co	      2.11102      4.21615      6.15232         0.049933      0.135944      0.069459
Co	      8.45142      4.19130      8.30082        -0.084527      0.008151     -0.029001
Ni	      8.50246      8.39372      8.37041        -0.070079     -0.052375     -0.016489
O	      2.15358      2.09071      2.14074         0.111180      0.010971      0.039542
O	      4.25344      4.13697      2.07964         0.037805     -0.271563      0.023537
O	      4.19342      2.07196      4.10147        -0.007549      0.017961     -0.080445
O	      6.47557      4.39341      4.16170         0.039041      0.078841     -0.005514
O	      6.26627      2.08588      6.32136         0.024323      0.036642      0.042074
O	      8.45580      4.28539      6.25592        -0.010502     -0.002011      0.032072
O	      2.15019      3.97929      4.08909         0.074559     -0.114552      0.191952
O	      4.37098      6.21293      4.20503         0.071878     -0.029414      0.087908
O	      4.25286      4.23635      6.26535         0.122761      0.135175     -0.088381
O	      6.36520      6.32688      6.15149        -0.001203      0.138497     -0.049262
O	      6.34353      4.05217      8.33593         0.096219      0.010733     -0.029066
O	      8.51262      6.31430      8.25833        -0.027727     -0.143941      0.056979
O	      2.28166      6.26082      6.16066         0.360819     -0.156650     -0.021870
O	      4.23816      8.23086      6.34560        -0.119949     -0.110048      0.187516
O	      4.27865      6.34263      8.21419        -0.013752      0.146552     -0.084062
O	      6.26915      8.43137      8.28991        -0.327411     -0.030732     -0.143313
O	      6.30242      6.25898     10.39102         0.007746      0.058687     -0.032716
O	      8.45155      8.44649     10.36636         0.034669     -0.043513      0.085004
