# total energy = -235.56371692 eV
 
CRYSTAL
PRIMVEC
-0.016308 6.297807 6.215569 
6.354151 -0.025790 6.225426 
4.217967 4.187122 0.000671 
PRIMCOORD
36 1
Li	     10.53568      4.18161      6.26610        -0.019205     -0.008627      0.023269
Li	      8.47433      2.11934      6.22050         0.018954      0.048785     -0.005983
Li	      6.27322      4.22514      2.10440        -0.038800      0.024107     -0.030983
Li	      4.14986      2.18208      2.07311        -0.051164      0.095354     -0.020980
Li	      2.12359      4.15654      2.09940         0.022759     -0.003018      0.027370
Li	      6.36126      4.12975      6.25329         0.009349     -0.014686      0.023490
Li	      8.40235      6.30373     10.32676         0.001080      0.043644     -0.015160
Li	      8.50524      8.31882      8.33008         0.009986     -0.019897     -0.006027
Li	      6.35743      6.23870      8.34157         0.030362     -0.016740     -0.003003
Ti	      0.09893      2.09122      2.07865         0.242101      0.013794      0.061862
Ti	      8.44721      6.08389      6.30782         0.005166     -0.525681      0.249358
Ti	      6.30222      8.45723      6.34276        -0.069835      0.187440      0.214806
Mn	      6.29413      4.28321     10.31892         0.021041     -0.014969     -0.003093
V	      4.21113      6.24961      6.29989        -0.017137     -0.012969     -0.074921
Cr	      6.37683      8.37401     10.30876         0.034452     -0.011216     -0.018930
Cu	      4.20676      6.26286     10.32135         0.000663      0.019083     -0.070128
Cu	      2.14920      2.05812      4.09341        -0.076635     -0.050473     -0.100740
Ni	      4.22581      4.17161      4.10122        -0.019207      0.011423      0.000125
O	      2.00866      2.09078      2.09430        -0.274670     -0.014548     -0.180589
O	      4.20681      4.33392      2.09055         0.025897      0.178087     -0.068494
O	      4.36295      2.09942      4.22120         0.266933      0.010141      0.058175
O	      6.38900      4.16817      4.13418        -0.058846     -0.112817      0.015417
O	      6.23223      2.06872      6.24233        -0.125924     -0.003119      0.062914
O	      8.42722      4.28564      6.30853         0.008280      0.500716      0.078169
O	      2.13980      4.08658      4.28158        -0.063763      0.065656      0.107917
O	      4.11450      6.24777      4.17931        -0.216083      0.092320     -0.048035
O	      4.12475      4.21551      6.18276        -0.142479     -0.043111      0.055451
O	      6.36463      6.33226      6.16337         0.076050      0.057186      0.223523
O	      6.33687      4.00045      8.28380        -0.004371     -0.162261      0.040757
O	      8.52173      6.29202      8.17742         0.075322     -0.070837     -0.319653
O	      2.21722      6.17625      6.20161         0.045109     -0.315210      0.040275
O	      4.33134      8.28038      6.22479         0.179916     -0.009170     -0.013915
O	      4.27767      6.27407      8.02515         0.040772     -0.027106     -0.039053
O	      6.33093      8.37427      8.24181         0.018145      0.034532     -0.253029
O	      6.25023      6.37413     10.34134         0.106541      0.073284     -0.002539
O	      8.35231      8.44665     10.37811        -0.060756     -0.019098     -0.007622
