# total energy = -232.02872295 eV
 
CRYSTAL
PRIMVEC
-0.000523 6.247507 6.228235 
6.263982 0.023393 6.204183 
4.205072 4.177941 -0.012861 
PRIMCOORD
36 1
Li	      4.24618     10.36779      6.28388         0.052356     -0.023688     -0.031442
Li	      6.21840      4.16530      2.03538         0.039314     -0.070406     -0.011585
Li	      4.17913      6.24298     10.26648         0.001903     -0.046704     -0.141255
Li	      4.15907      6.24354      2.09600         0.031191      0.059225      0.084090
Li	      6.20585      4.16453      6.27016         0.031618      0.022556      0.060460
Li	      6.26999      4.24697     10.31797         0.000215     -0.003451     -0.032124
Li	      2.09906      6.23538      4.15042        -0.011606      0.013982      0.033005
Li	      2.16285      4.24428      6.27148        -0.033607      0.043320      0.034002
Li	      4.23202      4.19783      8.21195         0.044721      0.149534      0.103350
Ti	      2.11808      8.27616      6.16442         0.119306     -0.325921     -0.013435
Ti	      6.26817      8.29030     10.33022         0.165458     -0.276127     -0.440337
Ti	      6.26385      6.19807      4.20962        -0.297710     -0.040734     -0.084050
V	      8.32820      4.27063      8.23053        -0.036913     -0.442717      0.125132
Cr	      4.18933      6.23287      6.23748        -0.163045      0.225950      0.064240
Co	      6.28956      6.27864      8.28836         0.206306     -0.166434     -0.112539
Cu	      4.31343      2.20243      6.35773        -0.091534     -0.041115      0.231020
Ni	      4.18376      8.35463      8.25639         0.074578     -0.101393     -0.096368
Ni	      4.17653      4.18625      4.14479        -0.020007      0.076662     -0.127887
O	      2.06179      2.13166      2.10069        -0.049317      0.053040     -0.080297
O	      4.06004      4.16643      2.09337        -0.040480      0.121374     -0.118339
O	      4.16447      2.09343      4.09613         0.080772     -0.083175      0.409995
O	      6.28860      4.22087      4.07856         0.068216      0.112949      0.144112
O	      6.39540      2.06305      6.06679        -0.039055      0.056925      0.081741
O	      8.38285      4.01958      6.36551        -0.030950      0.142971     -0.046960
O	      2.09993      4.01561      4.02111        -0.072110     -0.002660     -0.021248
O	      4.33235      6.25641      4.17636         0.184187      0.035154      0.071978
O	      4.16935      4.27967      6.16924         0.004412     -0.284374      0.127083
O	      6.21884      6.27139      6.15170        -0.014267      0.096120     -0.837424
O	      6.37437      4.35043      8.30329         0.149210     -1.214191     -0.113765
O	      8.25419      6.19015      8.36006         1.109259      0.241856     -0.397347
O	      2.16204      6.34696      6.25669         0.027679      0.209363     -0.099646
O	      4.07700      8.29906      6.18806        -0.187903     -0.054587     -0.117131
O	      4.35223      6.30283      8.20871        -1.159814      0.021702     -0.173447
O	      6.26903      8.27298      8.37130         0.055033      0.985757      0.354778
O	      6.25302      6.39620     10.23102        -0.086841      0.524445      0.997375
O	      8.24701      8.38650     10.44887        -0.110575     -0.015206      0.174264
