# total energy = -239.56528729 eV
 
CRYSTAL
PRIMVEC
-0.000332 6.255890 6.215661 
6.323924 -0.015868 6.230829 
4.224998 4.189575 -0.019582 
PRIMCOORD
36 1
Li	      4.18025      2.07680      2.13566         0.036007      0.006236      0.078619
Li	      6.42857      8.28780     10.37796        -0.041652      0.018015     -0.031074
Li	      6.29669      2.11634      8.27988        -0.072425      0.006655      0.030087
Li	      2.10226      2.04491      4.08952         0.026960     -0.021151     -0.020187
Li	      6.37542      4.06231      6.19171         0.009135     -0.054145     -0.027826
Li	      6.18665      4.23524     10.31091        -0.081797      0.065822     -0.047225
Li	      8.35435      6.37710     10.25900        -0.018532      0.023447     -0.034036
Li	      8.52120      8.26331      8.44521         0.040881     -0.061593      0.069158
Li	      6.35519      6.23666      8.44554        -0.015943      0.026735      0.058142
Ti	      8.24990      4.17164      8.37111        -0.365534      0.054212      0.059361
Ti	      6.36658      8.32191      6.30719         0.090206     -0.058236      0.685200
Ti	      4.24979      6.33058      6.23062         0.343709     -0.153612      0.058288
V	      4.29721      4.13148      4.05707         0.167072     -0.087074     -0.022442
Cr	      6.31421      0.02574      6.18683         0.043146     -0.100651     -0.082514
Co	      2.11599      0.08147      2.10042         0.165602     -0.182822      0.115438
Co	      8.44725     10.35308     10.29308        -0.176665      0.116421      0.086172
Co	      4.28134      2.09434      6.27842        -0.042277     -0.124177      0.006311
Co	      8.39131      2.09748      6.17475        -0.271550     -0.283577     -0.138254
O	      2.14095      2.18097      1.95363         0.061981      0.148092      0.551427
O	      4.23140      4.16715      2.09755        -0.014764      0.042280     -0.083229
O	      4.19347      2.26994      4.21960         0.025164      0.118380     -0.098037
O	      6.26591      4.20835      4.12839        -0.103343      0.027068      0.018539
O	      6.30855      1.97221      6.25104        -0.059062      0.049040      0.019367
O	      8.54708      4.14121      6.31112        -0.064069      0.622145      0.049841
O	      2.22206      4.14472      4.07434         0.019413      0.022562      0.025990
O	      4.20374      6.05728      4.27240         0.029458      0.012954      0.058970
O	      4.12911      4.26719      6.14560        -0.050043      0.094240      0.035047
O	      6.20744      6.38589      6.18891        -0.207756      0.151490     -0.016295
O	      6.43527      4.13943      8.30963         0.315902     -0.002051      0.002142
O	      8.41899      6.10841      8.25226        -0.031537     -0.106725      0.055694
O	      2.10757      6.17416      6.16609         0.096625     -0.212137     -0.011133
O	      4.36310      8.31533      6.12893        -0.017230     -0.104812      0.024109
O	      4.18563      6.27662      8.11954         0.000210      0.065361     -0.214525
O	      6.37166      8.37795      8.12641        -0.061785     -0.014752     -0.657101
O	      6.23313      6.27319     10.46182         0.083672     -0.029729     -0.004680
O	      8.43005      8.37672     10.44839         0.140820     -0.073911     -0.599345
