# total energy = -227.01870811 eV
 
CRYSTAL
PRIMVEC
-0.004156 6.257612 6.141196 
6.624488 -0.087620 6.224539 
4.341624 4.152545 0.016435 
PRIMCOORD
36 1
Li	      2.44383      6.17467      8.33129         0.083796      0.018730     -0.082282
Li	      4.52107      8.17568      8.33854        -0.022222     -0.036918     -0.123599
Li	      4.29103      0.13388      4.03175         0.014647     -0.131874     -0.029334
Li	      6.39017      2.14149      4.01389         0.077989     -0.040572      0.014554
Li	      0.03968      2.11220      2.06598         0.037831     -0.004426      0.007105
Li	      2.45420      1.89567      4.12949        -0.037646      0.031753      0.018721
Li	      8.53840      6.25659      6.11034        -0.049588     -0.083130      0.091160
Li	      4.50474      6.03351      6.27941         0.032228      0.090813      0.016070
Li	      4.22998      4.21740      8.11155         0.005884     -0.035395      0.159069
Ti	      6.64297      0.09284      6.24829         0.074878      0.150690     -0.065231
Ti	      2.27414      4.12754      2.12979        -0.075543     -0.022842      0.060272
Ti	     10.86906      8.13956     10.30033        -0.214955     -0.108762     -0.099354
V	      8.78147      6.17176     10.30783         0.014793      0.053949     -0.073820
Cr	      2.21412      2.13839      0.03964        -0.048230     -0.008690     -0.046147
Cu	      4.59202      4.01010      4.21966         0.204772      0.283077     -0.083301
Cu	      6.49491      4.04647      6.12002        -0.026252      0.042864      0.050530
Cu	      6.60416      8.18150      6.20832        -0.188176     -0.081485      0.163163
Cu	      6.43478      6.21895      8.17516         0.023735     -0.083926      0.251111
O	      4.18724      4.10654      6.12587         0.204838     -0.156206     -0.252831
O	      2.15041      2.23728      2.00392        -0.002173      0.114834      0.200108
O	      4.19803      4.22729      1.99763        -0.050127     -0.005257      0.077153
O	      4.40323      2.13439      4.13877         0.046146     -0.247830     -0.026546
O	      6.64415      4.10789      4.16157        -0.232775     -0.025818     -0.096790
O	      6.78757      1.99222      6.22280        -0.067939     -0.215582     -0.017080
O	      9.00079      4.06283      6.34554         0.093889      0.117144     -0.044413
O	      1.95586      4.17254      4.11041         0.053947     -0.126504     -0.071583
O	      4.15783      6.32579      4.13391         0.120178      0.026118      0.070153
O	      6.52378      5.96894      6.24224         0.040385      0.203857     -0.400561
O	      6.75437      4.10686      8.35160         0.093697     -0.139271      0.160530
O	      8.72062      6.03267      8.37119         0.011703     -0.051347     -0.248619
O	      1.98709      6.40058      6.12648        -0.032331      0.042300      0.065862
O	      4.27411      8.47660      6.06379        -0.047328      0.035783      0.037568
O	      4.50083      6.18363      8.23835        -0.240902      0.027646      0.001294
O	      6.55860      8.15253      8.13106         0.014416      0.367895      0.023594
O	      6.72471      6.11891     10.40542        -0.065744      0.002208      0.251190
O	      8.95700      8.24354     10.38140         0.152175     -0.003824      0.042283
