# total energy = -233.90587099 eV
 
CRYSTAL
PRIMVEC
-0.010300 6.102573 6.695222 
6.091610 0.007056 6.676916 
4.096228 4.092293 -0.028384 
PRIMCOORD
36 1
Li	      2.07336      2.04954      0.14114        -0.001775     -0.009589     -0.069346
Li	      9.98682      6.13686      8.80199         0.056422      0.044345     -0.013325
Li	      8.13582      4.22342      8.84155        -0.018954      0.017692     -0.006783
Li	      6.11694      6.11339      4.57375         0.023125      0.008314      0.107222
Li	      8.06013      6.12664      6.91842         0.045119      0.025586     -0.028158
Li	      8.08886      6.13243     10.65225        -0.010901      0.001507      0.057850
Li	      6.10056      8.05350      6.80687         0.034260      0.046940     -0.001134
Li	      8.12719      8.01038      8.88174        -0.001259      0.058550      0.001053
Li	      6.22632      6.11927      8.67478        -0.056196     -0.010338      0.034613
Ti	      8.16755      4.08991      4.46805         0.023243     -0.114154     -0.028908
Ti	      3.93651      4.11802      4.54328        -0.182518      0.100580      0.141091
Ti	      6.13452      3.95028     10.91693         0.070325     -0.118324     -0.382313
V	      0.05819      6.12447      6.73866        -0.004704      0.002998      0.115743
Cr	      2.06092      0.04182      2.26568        -0.008622      0.015558     -0.036134
Fe	      6.15971      8.13266     11.16351         0.020681     -0.063835     -0.100672
Co	      4.05907      2.08146      2.19871         0.031342     -0.010851     -0.042194
Cu	      6.10666      4.05982      6.76910         0.050410     -0.139936      0.145509
Cu	      4.03470      6.14218      6.68577        -0.097271     -0.014574      0.006095
O	      2.23047      2.04851      2.17626         0.009266     -0.018636     -0.035789
O	      4.15719      4.12457      2.18975        -0.061452     -0.056032      0.099374
O	      4.03946      2.13142      4.38773        -0.089936     -0.045909     -0.087295
O	      6.11569      4.15340      4.28441         0.071631      0.103679     -0.139271
O	      6.16131      2.03124      6.50779        -0.034485     -0.040451      0.131480
O	      8.17004      4.12221      6.41269         0.073953      0.048897     -0.075858
O	      2.06278      4.08217      4.44296         0.123986     -0.004181      0.026963
O	      4.06322      6.10283      4.32977         0.024002      0.039459     -0.101940
O	      4.07131      4.11239      6.40672        -0.095096     -0.153417     -0.216992
O	      5.96052      5.99329      6.69831         0.119157      0.104305     -0.044301
O	      6.12703      4.05837      9.14236         0.013962     -0.018826      0.455600
O	      8.10635      6.14248      8.79010        -0.019025      0.026074     -0.021683
O	      2.03773      6.08727      6.98013        -0.041200     -0.009927     -0.034918
O	      4.10957      8.18166      6.68497         0.019044      0.122333      0.097276
O	      4.05101      6.14594      9.22162         0.035472      0.021027      0.127344
O	      6.00480      8.22428      9.05223        -0.116103     -0.057407     -0.134463
O	      6.05910      5.98875     11.29575        -0.092943     -0.030909     -0.037540
O	      8.28052      8.24068     11.08100         0.087041      0.129453      0.091802
