# total energy = -238.45509117 eV
 
CRYSTAL
PRIMVEC
-0.006735 6.347723 6.211272 
6.316333 -0.013891 6.218372 
4.199534 4.225427 0.002092 
PRIMCOORD
36 1
Li	      0.02676      0.05178      0.06339         0.048355      0.048521     -0.053693
Li	      2.04569      2.08061      0.03639         0.009179     -0.081176     -0.024499
Li	      2.12304      6.30391      8.21637         0.031498     -0.033375     -0.087036
Li	      8.35002      4.22962      4.10220        -0.056010      0.056178     -0.047668
Li	      6.30422      2.16177      4.14169        -0.052692      0.062151     -0.005509
Li	      2.15599      4.24907      6.28815         0.088617      0.028800      0.051626
Li	      4.19523      6.28547      6.30624        -0.066141     -0.021486      0.025415
Li	      4.13076      4.29283      8.25323        -0.042412      0.035016      0.008303
Li	      6.26644      6.38736      8.24356        -0.005892      0.056321     -0.011364
Ti	      4.32799      8.34982      8.23853         0.457679     -0.368429      0.105832
Ti	      4.14843      8.51873      4.25299        -0.252330      0.221702      0.218367
Ti	      2.06878      6.39243      4.22768        -0.118833      0.153104      0.470894
V	      6.33034      4.20581      6.26662        -0.039897     -0.035294     -0.052821
Cr	      6.31037      6.31195      4.15966         0.118268     -0.019493      0.086757
Fe	      8.39420      4.21150      8.22441         0.092083      0.018743      0.008956
Co	      4.22155      4.21848      4.11139         0.030865     -0.012616     -0.032007
Co	      4.22805      2.12245      6.24032        -0.035041      0.012933     -0.134446
Ni	      0.02987      2.05185      2.01994        -0.038072     -0.032601     -0.011830
O	      2.13906      2.16376      2.13772         0.045359     -0.105451      0.011643
O	      4.22132      4.16386      2.07151         0.068649     -0.021493      0.089955
O	      4.10872      2.10909      4.04146        -0.000155     -0.059903     -0.070547
O	      6.27871      4.32663      4.24894        -0.134611     -0.076629     -0.035499
O	      6.29405      2.19752      6.22370        -0.455275      0.021682     -0.175116
O	      8.21737      4.22462      6.13927         0.013183      0.266863     -0.119493
O	      2.02113      4.21722      4.21278         0.054535     -0.053052      0.062839
O	      4.20916      6.44643      4.11429         0.009877      0.086956      0.196624
O	      4.38428      4.21354      6.19364        -0.086838     -0.320253     -0.047018
O	      6.34874      6.23024      6.15627         0.442915      0.084098      0.049960
O	      6.25995      4.17903      8.32315        -0.049275      0.061465      0.002913
O	      8.46589      6.24495      8.40198        -0.044400      0.078710      0.125523
O	      2.13390      6.32601      6.04715         0.000699     -0.013305     -0.483221
O	      4.16874      8.47307      6.15846        -0.006093      0.014105     -0.190403
O	      4.18506      6.50884      8.26402         0.016931      0.324274      0.019915
O	      6.17358      8.45288      8.28683        -0.383778     -0.004768      0.007859
O	      6.43759      6.18697     10.35705         0.162432     -0.228547      0.011614
O	      8.53421      8.31847     10.34912         0.176623     -0.143751      0.027173
