# total energy = -241.99696375 eV
 
CRYSTAL
PRIMVEC
0.045891 6.348066 6.319890 
6.244667 0.044438 6.320835 
4.183247 4.252387 0.009897 
PRIMCOORD
36 1
Li	      8.27151      2.16016      6.31425         0.030784      0.045354     -0.025620
Li	      6.21357      4.23876      2.13900         0.012920     -0.063755      0.012439
Li	      6.25007      2.16407      4.25470         0.011743      0.009797      0.027696
Li	      8.39630      4.39181      8.42325         0.016898      0.067848     -0.024617
Li	      6.28003      6.38630      4.23903        -0.036784     -0.019755      0.029222
Li	      4.24772      4.23802      4.17128         0.053205      0.008555      0.005818
Li	      8.41749      6.39468      6.41734         0.013434     -0.028348      0.073597
Li	      8.36055      6.39658     10.46944         0.010969     -0.022824     -0.039065
Li	      8.35852      8.40445      8.46844        -0.046904     -0.035010      0.005000
Ti	      8.23088      4.29115      4.25165        -0.222106     -0.049056      0.142214
Ti	      6.27570      4.20666     10.38103        -0.016447     -0.203866     -0.236288
Ti	      2.23327      4.20466      6.30736         0.226729     -0.090399      0.006596
V	      4.02493      2.18299      2.15868         0.067285     -0.025906      0.008700
Cr	      6.26822      0.10022      6.32768         0.045346     -0.076072     -0.017266
Fe	      4.16591      6.39155      6.34812        -0.095979     -0.130963     -0.043330
Co	     10.36671      6.36493      8.43037        -0.075153     -0.047539      0.117290
Co	      6.26453      4.20599      6.34408        -0.003551      0.045604      0.024347
Co	      6.41255      6.42269      8.46324         0.108453      0.056728     -0.005917
O	      2.24092      2.12288      2.08373        -0.017958     -0.045403     -0.030413
O	      4.17908      4.14128      2.04474         0.053230      0.254931      0.019444
O	      4.20277      2.04456      4.06963        -0.049741     -0.022181      0.017441
O	      6.36113      4.25502      4.28444         0.278197     -0.013543     -0.128081
O	      6.30241      2.12232      6.38492         0.037315     -0.166559     -0.161122
O	      8.42506      4.33811      6.18895        -0.118422      0.032182     -0.080778
O	      1.97050      4.23334      4.35882        -0.084344     -0.004458      0.080728
O	      4.20091      6.51377      4.18652        -0.042513      0.315696      0.069045
O	      4.09141      4.24061      6.31228        -0.097681     -0.090249      0.020177
O	      6.21967      6.44691      6.32541         0.187734      0.273414      0.119960
O	      6.30488      4.31222      8.48641        -0.017600     -0.123943      0.293154
O	      8.37879      6.40235      8.47601        -0.040671      0.031982     -0.048967
O	      2.11147      6.22837      6.32455        -0.293716     -0.100335     -0.054811
O	      4.24773      8.58338      6.32889         0.043993      0.046058     -0.035876
O	      4.25252      6.48354      8.54483        -0.042161      0.061658     -0.045034
O	      6.13560      8.48703      8.28886        -0.049372      0.014801     -0.145815
O	      6.23164      6.31283     10.61503         0.051790     -0.038891      0.032411
O	      8.50474      8.66153     10.51595         0.101073      0.134446      0.017719
