# total energy = -241.97442233 eV
 
CRYSTAL
PRIMVEC
0.014066 6.186667 6.284307 
6.341879 -0.011080 6.309417 
4.222725 4.136286 -0.002174 
PRIMCOORD
36 1
Li	      2.08719      2.08461      0.09283        -0.010758     -0.018178      0.012616
Li	      4.24170      2.09334      2.11862        -0.003273     -0.048479      0.006311
Li	      6.33343      8.28104     10.39005        -0.037829     -0.006011     -0.003348
Li	      2.17077      4.07717      2.09770         0.033202     -0.021600      0.047209
Li	      2.15309      2.05409      4.13552         0.000912      0.013223      0.000476
Li	      8.41870      6.21679      6.40737         0.025425      0.038542      0.043763
Li	      6.35063      8.18362      6.39074        -0.015158     -0.039797     -0.055139
Li	      8.32005      8.19654      8.38638        -0.000303      0.012453     -0.015323
Li	      6.45331      6.36137      8.30213         0.052092      0.059655      0.004762
Ti	      4.18307      0.12898      4.13995        -0.081973      0.446452     -0.161178
Ti	      6.34267      4.14387      6.42909        -0.154160      0.260521     -0.032247
Ti	      0.05122      4.06487      4.13939         0.147110     -0.177409      0.072924
V	      8.43233      6.22818     10.43811         0.038163     -0.077264     -0.017242
Cr	     10.50605      4.15430      6.33442        -0.010706      0.013907      0.046820
Fe	      6.32821     10.26537      8.30871        -0.030386      0.073769      0.070820
Fe	      4.22380      6.22023      6.42420         0.029506      0.020193     -0.136141
Co	      6.37693      2.05554      8.36465        -0.055438      0.017749      0.113716
Co	      4.18554      4.02239      4.18002        -0.047281     -0.051659      0.091604
O	      2.05832      1.91400      2.11490         0.010260     -0.010060      0.011660
O	      4.23692      4.08426      2.05738        -0.021832      0.078955     -0.060204
O	      4.23061      1.97949      4.20277         0.025137     -0.459266     -0.011097
O	      6.47034      4.08524      4.28896         0.166904     -0.003560     -0.017081
O	      6.32025      2.07043      6.30896         0.000158      0.022167     -0.088204
O	      8.43423      4.10689      6.19519        -0.009681     -0.026413     -0.021985
O	      2.01989      4.18268      4.17579        -0.139592      0.022637     -0.005711
O	      4.18920      6.24258      4.22144        -0.007425      0.221303     -0.064999
O	      4.39285      4.15406      6.23158         0.189560     -0.074436      0.006958
O	      6.35200      6.02145      6.33271         0.099315     -0.256012     -0.000706
O	      6.40792      4.15860      8.38683         0.001925     -0.093801      0.023918
O	      8.51842      6.20362      8.52743         0.000381     -0.020288     -0.079150
O	      1.99667      6.20776      6.21316        -0.083108      0.001188      0.038424
O	      4.23007      8.29032      6.11983        -0.029436      0.130488     -0.143864
O	      4.20399      6.20406      8.52353        -0.041415     -0.000183      0.315452
O	      6.36042      8.36657      8.35882         0.010569     -0.128772      0.024696
O	      6.29417      6.12066     10.57340        -0.089420     -0.017339     -0.013868
O	      8.63839      8.27023     10.44993         0.038556      0.097325     -0.004642
