# total energy = -90.94182172 eV
 
CRYSTAL
PRIMVEC
1.929597 3.997676 1.964818 
3.984197 -4.061087 0.001484 
3.969041 -0.013724 -4.012288 
PRIMCOORD
16 1
Li	      3.81835      3.81609     -0.05520        -0.394046      0.551020      0.755415
Li	      3.82179      1.85366      1.83413        -0.135217      0.709214      0.620989
Li	      3.78902      0.02207     -0.00096        -0.236109     -0.648702     -0.067652
Li	      3.81927     -1.90064     -1.91296         0.011028     -0.564675     -0.155923
Mn	      9.51065     -0.07271     -1.97358         3.920116      0.103153     -1.770362
Mn	      1.92011      1.92555     -0.04566        -3.692994      1.081824      1.282417
Ni	      3.77743      1.90939     -1.93522        -0.958636      0.950214     -1.607979
Ni	      5.76119     -0.02876     -1.91853         0.732693      0.636158     -0.616029
O	      5.69294     -0.19012      0.03763         0.370886      0.088614      1.504055
O	      5.73501     -1.92484     -1.80753         0.552254     -1.643016     -1.675177
O	      3.66336      1.89012     -0.04017         2.259959      0.551212      1.332134
O	      3.86285     -0.00783     -2.08994        -1.741255     -0.838805     -0.027182
O	      7.72075     -0.08362     -1.96854         0.024715      0.282172      0.067819
O	      3.89594     -2.12462     -0.01836        -0.847625     -0.914507      0.502352
O	      5.72102      1.98630     -2.05861         1.150786      0.973504      0.017136
O	      1.81717      0.10866      0.02596        -1.016553     -1.317379     -0.162014
