# total energy = -249.43844479 eV
 
CRYSTAL
PRIMVEC
-0.017821 6.343431 6.373503 
6.151255 0.005625 6.349763 
4.114007 4.226280 -0.009204 
PRIMCOORD
36 1
Li	      6.10223      0.08208      6.33424        -0.081762      0.108812     -0.050057
Li	      4.11569      2.11220      2.28151         0.044713     -0.107213      0.135827
Li	      4.10861      0.17205      4.28095        -0.040844     -0.049829     -0.023008
Li	      5.94655      2.14448      4.29541         0.055356      0.011809     -0.036988
Li	      6.10638      2.12988      8.40826        -0.093837      0.126800     -0.037033
Li	      4.16521      4.03470      4.42432         0.028051     -0.082693      0.073434
Li	      4.19072      2.24846      6.19282        -0.003080      0.028542      0.083377
Li	      6.01146      4.19524      6.27339         0.013166     -0.023789      0.047903
Li	      4.11757      6.16689      6.36614         0.089035     -0.137472      0.132835
Ti	      8.07221      2.16527      6.35291        -0.842473      0.132680     -0.142195
Ti	      6.12775      4.16259      2.18916         0.702755     -0.505087      0.675563
Ti	      2.17761      4.19788      2.01901        -0.260762      0.425670     -0.265684
Ti	      2.11006      6.33165      4.32972        -0.163490      0.317735     -0.632001
Ti	      4.15314      8.47413      4.36109        -0.396946      0.151150     -0.375004
Ti	      6.05763      6.42762      8.34440        -0.326735     -0.066907     -0.107954
Fe	      6.24738      6.26125      4.30533        -0.110309     -0.091134      0.097553
Co	      2.02729      4.26498      6.30237         0.614711     -0.216965      0.323214
Ni	      4.13352      4.21714      8.36750        -0.171900      0.234720      0.152549
O	      2.05197      2.11539      2.02336        -0.008974      0.029989     -0.053488
O	      4.11317      4.22470      2.06572         0.058495      0.057637     -0.072782
O	      4.04772      2.08748      4.25684         0.041741      0.031943     -0.049380
O	      6.14586      4.17901      4.03900        -0.063841     -0.063672     -0.670343
O	      6.24047      2.13190      6.33126         0.711451     -0.057513      0.004961
O	      8.20168      4.15985      6.44428         0.065757     -0.210588      0.292292
O	      2.05311      4.30264      4.11422         0.071549     -0.019548      0.124706
O	      4.10549      6.46067      4.23668        -0.233091      0.145479      0.094454
O	      4.08720      4.21112      6.40515        -0.619193      0.124130     -0.865144
O	      6.13336      6.30878      6.50607        -0.091023      0.359611      0.258863
O	      6.22702      4.35162      8.59010         1.113218     -0.046556      0.401205
O	      8.15488      6.29861      8.59964         0.048371     -1.112733      0.318984
O	      2.02861      6.43451      6.33040         0.109281     -0.271762      0.128055
O	      4.00986      8.49858      6.24445         0.209201      0.023168     -0.284314
O	      4.09613      6.31743      8.47749         0.034677      1.061029      0.019357
O	      6.14696      8.44889      8.49629        -1.056902     -0.028786     -0.150940
O	      6.24069      6.27539     10.51917         0.194187     -0.108757      0.038615
O	      8.28122      8.39128     10.63777         0.359447     -0.169899      0.412566
