# total energy = -196.06509859 eV
 
CRYSTAL
PRIMVEC
-0.003292 6.202073 6.040841 
6.186179 -0.008554 6.046180 
4.126579 4.140736 -0.008232 
PRIMCOORD
36 1
Li	      4.12441     10.32741      6.03700         0.147105     -0.082861     -0.096336
Li	      8.25446      8.26189     12.07112         0.090978     -0.185506     -0.051689
Li	      6.20649      6.24025      4.08500        -0.007321     -0.026334      0.096997
Li	      4.09156      4.12533      4.10851         0.042919      0.053093      0.108055
Li	      4.07748      2.11676      6.02137        -0.031487      0.121400     -0.056433
Li	      2.13482      4.07057      6.02017        -0.062205      0.052363      0.128365
Li	      4.16244      6.15285      6.05282         0.029985      0.025804     -0.005713
Li	      4.06748      4.15274      7.99957        -0.174541      0.142109     -0.004608
Li	      6.16166      6.24453      7.96994        -0.058608      0.096872     -0.039998
Mn	      4.11675      8.26515      8.00279         0.463497     -0.253590     -0.592179
Mn	      6.15091      4.19163      6.05223        -0.587193      0.215854     -0.193386
Co	      2.08009      4.14600      2.01231        -0.059419     -0.118783     -0.322121
Co	      2.04120      6.18947      4.06386         0.084497      0.271257      0.421487
Cu	      6.19318      2.05190      4.05438         0.093845     -0.116310      0.165832
Cu	      6.15899      2.06484      8.03051        -0.069522      0.044404     -0.093258
Ni	      2.03686      6.22415      7.98351         0.043758     -0.091524     -0.078377
Ni	      8.27850     10.33114     10.09697         0.123229     -0.030171     -0.128339
Ni	      4.11300      8.27323      4.09924        -0.142877     -0.046705      0.263984
O	      8.27281      6.01654      8.19282        -0.176860     -0.139155     -0.110423
O	      2.08428      6.18656      5.89595        -0.064852     -0.025672     -0.229251
O	      2.15457      2.15121      2.05648         0.096383      0.345866      0.130946
O	      4.04823      4.04411      2.00529        -0.256940     -0.080103      0.054351
O	      4.22651      2.01122      3.92271        -0.200025      0.144779      0.174690
O	      6.23763      4.03562      4.10008        -0.050720      0.224698      0.116553
O	      6.18123      2.18156      6.12083         0.044919     -0.075857     -0.158013
O	      8.13400      4.15293      6.10881         0.259022     -0.014988      0.568153
O	      2.00022      4.25729      3.93668         0.164259     -0.086319     -0.291681
O	      3.94004      6.26159      3.88672        -0.069430     -0.182832      0.304667
O	      4.28581      4.12647      6.08812         0.162652     -0.080009      0.053474
O	      6.19371      6.05433      5.99937         0.094873     -0.168687     -0.027252
O	      6.34847      4.11629      8.00609         0.240065      0.133405      0.017447
O	      4.13788      8.26045      6.11957        -0.113914      0.085960      0.249054
O	      4.04777      6.34485      8.09899         0.014616     -0.100734     -0.010768
O	      6.04972      8.33842      8.07038         0.004391      0.025762     -0.232204
O	      6.30731      6.22883     10.06921        -0.034197     -0.010027     -0.033748
O	      8.21384      8.16081     10.01841        -0.040880     -0.067459     -0.098278
