# total energy = -197.37646788 eV
 
CRYSTAL
PRIMVEC
0.046705 6.206337 6.161229 
6.181093 0.026153 6.181774 
4.140680 4.171155 -0.002419 
PRIMCOORD
36 1
Li	      4.23658      8.27995      8.26160        -0.041209      0.051233      0.058898
Li	      4.06998      0.08494      4.07717        -0.022566      0.144449      0.056721
Li	      6.16795      2.15687      4.07401        -0.052757     -0.010945      0.048990
Li	      0.05248      2.06464      2.02941        -0.135986     -0.023511     -0.055073
Li	      8.22747      4.17416      8.22188         0.087725      0.061008     -0.034978
Li	      4.18146      4.11536      4.14383        -0.057693     -0.011432      0.038482
Li	      6.18209      4.20185      6.17828         0.008943      0.044201      0.004352
Li	      6.29318      8.27479      6.24879         0.024612     -0.131182     -0.002897
Li	      6.15695      6.26356      8.22691         0.122059      0.028898     -0.027396
Mn	      0.07258      6.20589      6.16850        -0.353529      0.361035      0.061525
Mn	      6.22589      4.15680     10.23714         0.099943     -0.135712     -0.116294
Co	      2.11186      2.04464      4.10164         0.359295     -0.046847      0.374129
Co	      8.23643      6.33668      6.21550         0.140697     -0.512727     -0.319013
Co	      8.29161      6.19687     10.19152         0.006131     -0.277310      0.306215
Cu	      8.20402      2.17833      6.21836        -0.105132      0.117585      0.078831
Ni	      6.21160      4.16763      2.09481        -0.087284      0.029880      0.257292
Ni	      4.18092      6.18788      6.20558         0.109771     -0.133982     -0.091408
Ni	      8.26900      8.33870      8.25656         0.030196     -0.197881     -0.374570
O	      6.25581      8.47847      8.28971        -0.008350     -0.816194      0.070499
O	      2.09521      1.92433      2.12976         0.034051      0.554319     -0.142957
O	      4.29188      4.15217      1.88462        -0.522860      0.002334     -0.111665
O	      3.94208      2.13297      4.20534         0.016407      0.033551      0.154852
O	      6.18492      4.39245      4.12053        -0.021131     -0.128123     -0.322748
O	      6.25011      1.95415      6.11622         0.002666     -0.097421     -0.002199
O	      8.43157      4.36713      6.22389         0.114877     -0.058364     -0.151126
O	      1.96050      4.03669      4.06290        -0.147243      0.620887     -0.006432
O	      4.26025      6.35804      4.17475        -0.726301     -0.013762     -0.157052
O	      4.18738      4.03590      6.20070        -0.089937      0.235563      0.164084
O	      6.22543      6.23561      6.04169        -0.098709      0.020102     -0.130090
O	      6.16664      4.16849      8.37551        -0.068855      0.006742      0.202246
O	      8.26721      6.27105      8.27401        -0.054199      0.391167      0.346914
O	      2.04115      6.11726      5.98976        -0.008657      0.131710     -0.130777
O	      4.06611      8.39836      6.06186         0.193817      0.004357     -0.051632
O	      4.03647      6.20440      8.16552         0.740999      0.001915      0.168310
O	      6.24006      6.08616     10.35757         0.594355      0.111132     -0.028162
O	      8.42182      8.25668     10.32640        -0.084145     -0.356673     -0.135873
