# total energy = -201.78695894 eV
 
CRYSTAL
PRIMVEC
0.013070 6.226986 6.460840 
5.981345 0.029423 6.444708 
3.987219 4.140337 0.019895 
PRIMCOORD
36 1
Li	      5.98087      0.13263      6.48012        -0.001046     -0.002436     -0.029708
Li	      7.94422      2.11444      6.46735        -0.094455      0.028168     -0.012333
Li	      4.04707      8.33020      8.53891        -0.002111      0.121081      0.053091
Li	      5.97854      2.12306      4.39443         0.007077     -0.059986     -0.032552
Li	      5.96818      2.10472      8.35475         0.059700     -0.106013     -0.028675
Li	      4.01208      4.11883      4.17204         0.068662      0.014924     -0.108991
Li	      5.96785      4.02460      6.53111         0.079409     -0.035375     -0.005983
Li	      9.95743      8.29634     10.74881        -0.026032      0.160809     -0.004088
Li	      5.99276      6.20076      8.68630         0.009409     -0.000479      0.159283
Mn	      7.96753      4.16352      8.51665        -0.024700     -0.232242      0.012944
Mn	      3.99815      6.27055      6.54374        -0.102527      0.023918      0.022756
Fe	      1.97112      2.11204      4.26558        -0.002647     -0.346716     -0.297656
Co	      5.96467      4.17713      2.19566         0.575505     -0.226220      0.169684
Co	      8.12825     10.34095     10.89804        -1.050155      0.516072      0.037771
Co	      4.03531      4.18594      8.65728        -0.044294     -0.000772      0.134700
Cu	      7.94776      6.25003     10.71757        -0.100327      0.077067      0.077261
Cu	      5.95026      8.33778      6.50590        -0.066723      0.148757      0.021920
Ni	      4.01853      2.07692      6.45417        -0.168910     -0.121999     -0.033567
O	      4.03148      8.14357      6.46506         0.039463     -0.051311      0.037919
O	      5.93731      6.23207     10.75865         0.352511     -0.240896     -0.173458
O	      1.96300      2.07305      2.26972        -0.023631      0.237474      0.065466
O	      3.95650      4.10277      2.14548         0.077899      0.095094     -0.097845
O	      3.93406      2.06097      4.52690         0.251372     -0.720797     -0.283026
O	      6.11591      4.24265      4.10673         0.367600      0.028453      0.231286
O	      5.88271      2.11049      6.39145         0.261460      0.064227      0.043744
O	      7.95006      4.13014      6.49673        -0.022513     -0.011395     -0.304199
O	      1.98312      4.17258      4.03254        -0.004346      0.027233      0.221815
O	      3.95534      6.14676      4.60798        -0.078263      0.004724      0.058920
O	      3.94021      4.27884      6.67449         0.004102      0.026345      0.123507
O	      5.95655      6.32572      6.34160        -0.095432      0.022478      0.009668
O	      5.94086      4.14107      8.56720         0.580105     -0.001842     -0.043377
O	      7.96697      6.13279      8.43063        -0.064530     -0.102307      0.222868
O	      2.07584      6.22429      6.70180         0.032941     -0.109387      0.007997
O	      4.03331      6.30291      8.52152        -0.794929     -0.000059      0.065852
O	      6.14002      8.48995      8.74905        -0.012136      0.325665     -0.163443
O	      8.01294      8.26149     10.60538         0.012493      0.447740     -0.159553
