# total energy = -207.80144196 eV
 
CRYSTAL
PRIMVEC
-0.017204 6.307393 6.139690 
6.211785 0.041596 6.079751 
4.174274 4.197736 -0.004711 
PRIMCOORD
36 1
Li	      8.26850      8.44555     12.14997         0.090224      0.057351     -0.045583
Li	      8.22764      4.35518      8.15903         0.017968      0.004926     -0.067024
Li	      2.00473      2.23236      4.11192         0.011620      0.013902      0.142734
Li	      8.30385      6.30424      6.13305        -0.106649     -0.069623      0.026453
Li	      0.06383      4.24444      4.13662         0.014076     -0.005565      0.146983
Li	      2.07153      6.26574      4.07818        -0.008158      0.072888      0.044667
Li	      2.05318      4.17973      6.06756        -0.219301     -0.061580      0.008419
Li	      4.16513      6.31885      6.03269         0.174503      0.141526      0.034164
Li	      6.38589      6.25859      8.16303         0.038244      0.068596     -0.141519
Mn	      2.03236      6.31516      8.12029         0.218781      0.091544     -0.172443
Mn	      4.07415      4.21571      4.15562        -0.040263     -0.056318      0.110632
Fe	      6.12867      2.21752      8.12163        -0.032995      0.189477     -0.056101
Co	     10.35911      4.25832      6.07233         0.167277     -0.302551     -0.063427
Co	      4.07533      8.36647      8.05874         0.338990      0.701118      0.799763
Co	      6.22117      8.41613     10.20797        -0.091515      0.040478      0.095623
Co	      6.32648      4.45756      6.11984        -0.163965     -1.285199      0.468988
Co	      8.31589      8.37735      8.11825        -0.090485     -0.040994      0.122963
Ni	      8.34510     10.50077     10.20684        -0.151554      0.100624      0.020039
O	      2.05761      1.91105      2.06309         0.608198     -0.133572     -0.145302
O	      4.26085      4.22189      1.99312        -0.065776     -0.618847      0.070156
O	      4.26386      2.19507      3.93636        -0.118879     -0.189535     -0.373054
O	      6.17197      4.07241      4.03730        -0.198201      0.174635      0.106568
O	      6.22077      2.01917      6.04159        -0.005374      0.235392     -0.053147
O	      8.34546      4.22284      6.06231        -0.463406      0.068736      0.066255
O	      2.23729      4.17305      4.08932         0.175117      0.068581      0.002269
O	      4.15423      6.14814      4.03060         0.043238     -0.193309     -0.138118
O	      4.24380      4.21185      6.09913         0.631043      0.171765     -0.239420
O	      6.22880      6.22723      6.12856         0.068481      0.164227     -0.040988
O	      6.24937      4.17913      8.11643        -0.040317      0.229451     -0.617928
O	      8.37369      6.37475      8.11986         0.154314      0.184050      0.014194
O	      1.90947      6.28878      6.26484        -0.139823     -0.042955      0.150488
O	      4.14759      8.56802      6.22507        -0.182951     -0.041519     -0.042619
O	      3.94919      6.34993      8.13252        -0.167162      0.472801      0.007836
O	      6.17001      8.54218      8.26219        -0.574768     -0.027988     -0.133132
O	      6.18094      6.48495     10.29888         0.076770     -0.044818      0.057355
O	      8.14221      8.47844     10.11187         0.032700     -0.137694     -0.166745
