# total energy = -194.62171781 eV
 
CRYSTAL
PRIMVEC
0.019315 6.190397 6.088504 
6.322778 0.013768 6.094364 
4.216756 4.132360 0.007753 
PRIMCOORD
36 1
Li	      8.44928      8.22552     12.13614        -0.016673     -0.042376      0.001171
Li	      6.35352      8.23291     10.14632        -0.032779      0.028340     -0.010469
Li	      6.28157      6.21118      4.05178        -0.029910      0.063971      0.038593
Li	      4.18761      4.20955      4.07192        -0.060576      0.017758      0.016412
Li	      4.22446      2.07621      6.07442        -0.020983      0.049421     -0.026485
Li	      4.18669      8.23555      4.09373         0.074411     -0.023680     -0.012080
Li	      2.21106      6.18475      4.08865         0.092058     -0.063122     -0.003617
Li	      4.21621      6.19281      5.99484         0.052517     -0.047254     -0.046727
Li	      6.36337      6.20867      8.18331         0.007797      0.019836     -0.036799
Mn	      4.22216      8.21806      8.11670         0.046736     -0.241666      0.300523
Mn	      6.32521      4.20405      6.07480        -0.277284      0.215370      0.005440
Fe	      2.12178      4.05061      6.00018         0.184166     -0.217513     -0.082264
Cu	      6.31940      4.13874      2.05007         0.033182      0.037410      0.074586
Cu	     10.50082      6.26011      8.16889         0.108148      0.074025     -0.006585
Cu	      2.11537      4.14734      2.10204        -0.164863      0.075993      0.032041
Cu	      8.45765      8.24089      8.16072         0.091481     -0.147117     -0.045949
Cu	      6.34753      6.21265     12.14166         0.121453      0.022909     -0.169682
Cu	      4.22791      0.01115      4.07405         0.000856      0.057018      0.152182
O	      8.55041      6.15193      8.18474        -0.025635      0.266685     -0.012909
O	      4.25032      6.28500      8.18835        -0.018777      0.011851     -0.296287
O	      6.20334      6.22793     10.27610        -0.032359     -0.009522      0.133743
O	      8.44798      8.38517     10.04183        -0.018303      0.032602     -0.021857
O	      2.22138      2.08077      2.00810        -0.170235     -0.270001     -0.042344
O	      4.10085      3.98461      1.94281        -0.003518      0.055230     -0.038091
O	      4.24157      1.98706      3.93661        -0.025038     -0.089083     -0.125840
O	      6.39488      4.11659      4.12158         0.079631     -0.023111      0.002677
O	      6.31178      2.20845      6.27420         0.044143     -0.205931     -0.114617
O	      8.26838      4.16489      6.07065         0.166095     -0.018409      0.290729
O	      2.13670      4.13579      4.13856         0.030150      0.037430     -0.339120
O	      4.23152      6.20003      3.87831         0.031097     -0.000606      0.223276
O	      4.29495      4.13651      6.21592         0.049845      0.009386      0.027033
O	      6.31830      6.17681      6.08297         0.043695     -0.148973      0.016845
O	      6.48089      4.22695      8.01213         0.082263      0.033149      0.053502
O	      2.13785      6.08441      6.17764        -0.113159      0.243410     -0.089202
O	      4.29310      8.21058      6.19080        -0.220163      0.116309     -0.055574
O	      6.19118      8.28976      8.05205        -0.109469      0.080262      0.207744
