# total energy = -217.94291383 eV
 
CRYSTAL
PRIMVEC
-0.016716 6.232405 6.354881 
6.165134 0.044334 6.293414 
4.119086 4.123239 0.020837 
PRIMCOORD
36 1
Li	      6.09544      0.16170      6.28324         0.000625     -0.074343      0.011204
Li	      4.10567      2.13586      2.25251         0.024790     -0.028699      0.121074
Li	      8.22875      4.22868      4.41009         0.035789     -0.032476      0.052502
Li	      6.02626      2.19040      4.36712        -0.006260      0.013316     -0.051836
Li	      6.20529      2.07092      8.19176        -0.001777      0.013207      0.021960
Li	      4.20319      4.04082      4.26462         0.006711      0.030643      0.026752
Li	      4.31244      2.09195      6.21719         0.012056      0.018921      0.008307
Li	      6.17073      4.02953      6.21666        -0.009651      0.040073      0.004341
Li	      6.14851      8.27627      6.35543        -0.034494      0.020113     -0.005641
Mn	      4.11097      4.17736      8.35276         0.041104     -0.065459      0.056519
Cr	      6.10451      4.16370      2.15141        -0.003805     -0.001511     -0.027237
Cr	      6.13307      6.28389      8.40320        -0.044784      0.016278     -0.032193
Fe	      2.20156      4.04300      2.03250        -0.136105      0.081468      0.282125
Fe	      6.31219      6.14320      4.36683        -0.283636      0.101315     -0.028093
Fe	      2.02798      6.19563      4.33678         0.013633     -0.006225     -0.097223
Co	     10.25164      8.30816     10.53265         0.060826      0.006325     -0.040895
Co	      4.08011      6.24767      6.33027         0.037932     -0.043282     -0.021480
Cu	      8.15291      2.15668      6.25180         0.173566      0.041719     -0.027141
O	      6.25026      2.10241      6.27738        -0.024465     -0.011412     -0.028695
O	      2.03832      2.06470      2.29015         0.002360     -0.142402      0.029835
O	      4.11753      4.12047      2.13870         0.241841      0.029774      0.005614
O	      4.04851      2.08515      4.28207         0.255026      0.034250      0.019269
O	      6.17259      4.20426      4.11505        -0.007636     -0.128199      0.009435
O	      8.20811      4.13045      6.47078        -0.025731      0.047475     -0.294697
O	      1.92756      4.17930      4.13577        -0.061999     -0.043212     -0.000977
O	      4.06847      6.31161      4.40017         0.047838      0.053116      0.049782
O	      4.10918      4.29129      6.46464        -0.009943      0.085175     -0.167890
O	      6.00420      6.27648      6.37737        -0.077540     -0.015684      0.039114
O	      6.10027      4.26462      8.52937        -0.032169      0.001432      0.002670
O	      8.15326      6.33169      8.46159        -0.025844     -0.095231     -0.000319
O	      2.11165      6.26588      6.34708         0.032069     -0.080386      0.100955
O	      3.99789      8.18521      6.16230        -0.053232     -0.056152     -0.040764
O	      4.08908      6.14366      8.30483        -0.036884      0.156859     -0.076026
O	      6.29238      8.32165      8.44536        -0.049641     -0.015119      0.008275
O	      6.19790      6.13539     10.42149        -0.055315     -0.041783      0.051223
O	      8.33148      8.24871     10.34262        -0.005253      0.090116      0.040150
