# total energy = -91.95262307 eV
 
CRYSTAL
PRIMVEC
2.059570 4.266949 2.097163 
4.252563 -4.334632 0.001584 
4.236386 -0.014648 -4.282546 
PRIMCOORD
16 1
Li	      2.29050      0.08055     -2.16005         0.301400     -0.366219     -0.404650
Li	      2.29441     -2.15516     -0.00762         0.091082     -0.424959     -0.346985
Li	      4.31664      0.02514     -0.00109         0.196690      0.395995      0.090599
Li	      4.35111     -2.16531     -2.17934        -0.087935      0.336070      0.089886
Mn	      0.28652     -0.00051     -0.06461        -4.209595     -0.191090      1.222597
Mn	      2.18749      2.19368     -0.05202         2.023129     -0.424908     -0.533412
Ni	      4.30345      2.17527     -2.20471         0.404722     -0.317864      0.677629
Ni	      6.56344     -0.03277     -2.18569        -0.270955     -0.250219      0.288816
O	      6.48569     -0.21659      0.04287        -0.140308      0.030581     -0.656191
O	      6.53362     -2.19288     -2.05924        -0.567346      0.818618      0.824270
O	      4.17349      2.15332     -0.04577        -0.904043     -0.320270     -0.432573
O	      4.40076     -0.00892     -2.38097         0.977266      0.122074     -0.174597
O	      8.79589     -0.09526     -2.24267        -0.581856     -0.167724     -0.170420
O	      4.43846     -2.42047     -0.02091         0.622719      0.648571     -0.381694
O	      6.51769      2.26290     -2.34527        -0.299182     -0.463921     -0.090251
O	      2.07021      0.12380      0.02957         2.444214      0.575266     -0.003026
