# total energy = -207.98515886 eV
 
CRYSTAL
PRIMVEC
0.046408 6.047374 6.226243 
6.323875 0.016428 6.256388 
4.204274 4.040334 0.022346 
PRIMCOORD
36 1
Li	      8.43007      8.10386     12.41142         0.157626      0.016075     -0.090673
Li	      2.27802      6.06650      8.33158         0.060682     -0.049221     -0.015027
Li	      8.43021     10.05501     10.35152         0.054427     -0.036982     -0.076335
Li	      6.41151      8.13250     10.38860         0.068190     -0.083859     -0.148805
Li	      6.35109      6.01754      4.23203         0.081059     -0.019451     -0.034447
Li	      4.22307      2.01132      6.18894        -0.077262     -0.033624      0.019901
Li	      8.49854      6.16442     10.41232        -0.167373      0.005417      0.003947
Li	      4.28356      6.04796      6.36282        -0.010074     -0.004853      0.232489
Li	      6.21401      6.10008      8.28891        -0.210672     -0.022104      0.012688
Mn	      4.24400      4.04216      4.20462         0.094456     -0.357568      0.292951
Mn	      6.30252      8.00105      6.25381         0.124023      0.108280      0.212528
Cr	      6.41904      6.11121     12.32757        -0.240360     -0.419785     -0.417534
Cr	      2.12614      4.05205      2.11604        -0.186081      0.277520     -0.064530
Co	      0.05357      2.00247      2.06620         0.046019      0.053585     -0.093764
Cu	      6.37500      4.07724      6.22009         0.059822      0.156695     -0.120772
Ni	      4.25787      7.97147      8.36684         0.076840     -0.155455     -0.089248
Ni	     10.46911      8.03687     10.43709         0.008875      0.306353      0.003252
Ni	      8.39714      8.09008      8.42059        -0.159379      0.098989     -0.152422
O	      4.21936      6.02083      8.34071        -0.024980      0.231202     -0.063502
O	      2.00535      2.11589      2.09187        -0.279751     -0.693395      0.085165
O	      4.15026      4.08932      2.20933         0.139844      0.023165     -0.161867
O	      4.22850      2.16786      4.11194        -0.043188      0.101177      0.132347
O	      6.13581      4.05432      4.31026        -0.188081     -0.038173     -0.111009
O	      6.39456      2.02589      6.37362        -0.015562      0.048285      0.586641
O	      8.70166      4.04624      6.44362         0.008705      0.063196     -0.213706
O	      2.17007      4.06274      4.18599         0.173816     -0.005184      0.178857
O	      4.22872      6.00727      4.01553         0.052997     -0.096608     -0.455856
O	      4.01120      4.08271      6.11206         0.032454     -0.071145      0.049734
O	      6.32726      6.09371      6.26598         0.005463      0.099804     -0.055726
O	      6.42182      3.94720      8.25660         0.049223      0.072378      0.121720
O	      8.66598      6.04922      8.32772         0.375346      0.218987      0.024492
O	      1.93201      5.92923      6.29657         0.099213     -0.049646     -0.063102
O	      4.35091      8.10361      6.23856         0.024392      0.104417      0.150458
O	      6.34677      8.04271      8.14454        -0.104606     -0.016406     -0.099647
O	      6.35376      6.04943     10.54440         0.064059      0.211906      0.084608
O	      8.49877      8.08120     10.38556        -0.150160     -0.043974      0.336194
