# total energy = -210.81186273 eV
 
CRYSTAL
PRIMVEC
-0.008529 6.148280 6.252362 
6.168351 -0.030970 6.274416 
4.116679 4.118280 -0.024850 
PRIMCOORD
36 1
Li	      6.10267      6.07728     12.33145        -0.039224     -0.020030      0.029280
Li	      8.26991      8.16956     12.35118        -0.007900      0.021294      0.050652
Li	      8.34368     10.10162     10.45861         0.001028      0.000222      0.018557
Li	      8.18931      4.13391      8.42042        -0.012478     -0.011269     -0.022047
Li	      6.12846      4.21598     10.41135         0.037394     -0.034292     -0.120486
Li	      8.11528      6.14622     10.39798         0.051471     -0.062140      0.028188
Li	      1.99639      4.14251      6.14622         0.001124      0.014534      0.041212
Li	      8.26619      8.14679      8.52015         0.066714     -0.074116     -0.052228
Li	      6.20995      6.10203      8.48607         0.003439      0.024781     -0.078269
Mn	      4.11975      6.17454      2.07779        -0.042818      0.105236     -0.013185
Mn	      4.06108      6.18508      6.26253         0.305664     -0.012015     -0.034414
Cr	      8.20824      6.14069      6.25324        -0.027166     -0.008558     -0.002487
Cr	      6.22455      4.07038      6.26058        -0.252559      0.007816      0.012670
Co	      4.10477      2.05514      2.07369        -0.199575     -0.068726     -0.075321
Co	      4.08055      4.11902      4.17506         0.012470      0.060594      0.137967
Cu	      6.17326     10.21800      8.31393         0.073958      0.109273     -0.050361
Cu	      6.23614      8.10170     10.39205        -0.038163     -0.143971      0.123015
Ni	      2.04994      2.10406      4.18388        -0.051375     -0.090417      0.021814
O	      5.98407      8.25616      8.39632         0.020860     -0.013151      0.008018
O	      6.16200      6.16623     10.40708        -0.011905     -0.047439     -0.051784
O	      8.15701      8.18311     10.40984         0.126285     -0.005903     -0.014517
O	      2.06990      1.96003      2.14846        -0.085820      0.020888     -0.153803
O	      4.17421      4.08189      2.22729        -0.100801     -0.008235      0.015830
O	      4.10803      2.18299      4.10786         0.078493      0.049995      0.022275
O	      6.05025      4.11286      4.21095         0.023730     -0.126020     -0.224993
O	      6.09304      2.06578      6.21092         0.044438     -0.025707     -0.062019
O	      8.15958      4.20544      6.22069         0.126938     -0.028841     -0.027856
O	      2.18432      4.07717      4.16541         0.055899      0.202719     -0.047488
O	      4.11876      6.07631      4.28122        -0.166854     -0.060290      0.206215
O	      4.16023      4.13590      6.14107        -0.004875      0.074871     -0.077263
O	      6.13521      6.07623      6.25006        -0.059917      0.055580      0.144871
O	      6.18167      3.93573      8.24473         0.070913     -0.048082      0.087490
O	      8.36809      6.15221      8.19574         0.032644     -0.034722     -0.009741
O	      2.20040      6.11991      6.32973        -0.115712      0.015860      0.074185
O	      4.11515      8.07190      6.40205        -0.008734      0.100729      0.006071
O	      4.05297      6.27003      8.21023         0.092414      0.059532      0.089953
