# total energy = -212.77590234 eV
 
CRYSTAL
PRIMVEC
-0.020346 6.247605 6.225580 
5.999981 0.011862 6.194852 
4.030808 4.174381 -0.022361 
PRIMCOORD
36 1
Li	      8.08296      8.36139     12.29393        -0.076796      0.003653     -0.017427
Li	      4.02923      8.22072      8.18877        -0.031857     -0.020553      0.103329
Li	      3.98919      6.21837     10.30822        -0.011378      0.026601     -0.018288
Li	      4.01091      4.14583      4.28620        -0.051957     -0.055474      0.043919
Li	      3.95568      2.16097      6.14284        -0.002257      0.093325     -0.044342
Li	      3.98752      8.33855      4.27703         0.006228     -0.001280     -0.093816
Li	      1.92804      4.18401      6.11872         0.102804     -0.009042     -0.050257
Li	      4.02392      6.20503      6.26186        -0.027459     -0.116012      0.003739
Li	      3.98580      4.25940      8.25424         0.034084      0.019220     -0.015289
Mn	      5.97081      2.09806      4.14154         0.009464     -0.034347     -0.243724
Mn	      9.99103      6.28276      8.24640        -0.058619      0.115470      0.140416
Cr	      2.05374      6.21722      8.25749         0.136749     -0.081276      0.020886
Cr	      2.03233      4.13019      2.07897         0.011965     -0.111420      0.142485
Co	      9.97851     10.41810     12.36458        -0.272054     -0.616358     -0.115405
Co	      2.05163      2.13759      4.19445         0.027685      0.120691      0.044778
Co	      5.99593      4.25506      6.17011         0.030684     -0.156614      0.139183
Ni	      2.05082      6.26543      4.24009        -0.058369     -0.150652      0.035108
Ni	      5.93833      6.34691      8.21193         0.174123     -0.225246      0.079831
O	      1.91775      2.06261      2.20943         0.008136      0.047401     -0.104643
O	      4.03652      4.32352      1.90596        -0.071037      0.135792      0.747806
O	      3.98716      2.07888      4.09790         0.097569     -0.029122      0.040413
O	      6.02022      4.09985      4.06990         0.003681     -0.043971     -0.024749
O	      5.98715      2.04384      6.22899        -0.031380     -0.227005     -0.161708
O	      7.97211      4.15763      6.29186        -0.354127      0.120431      0.023963
O	      2.02333      4.08045      4.06392        -0.057246     -0.123020     -0.025814
O	      4.10512      6.25907      3.97021         0.072174     -0.049234     -0.000088
O	      4.19320      4.19195      6.21151        -0.176019     -0.024537     -0.028599
O	      6.02755      6.22368      6.09906        -0.015078      0.089071     -0.135368
O	      6.04699      4.05451      8.21137         0.015092     -0.014224      0.051566
O	      8.05128      6.13675      8.34160         0.147616      0.053710     -0.080763
O	      1.88733      6.24127      6.27414         0.820754      0.098630      0.050773
O	      3.99295      8.54222      6.22048        -0.061236      0.499886     -0.041073
O	      3.98571      6.25119      8.24096        -0.348747      0.085873     -0.001970
O	      5.98442      8.38773      8.43073         0.037403      0.142717      0.077714
O	      5.99475      6.37893     10.39648        -0.080804      0.252131     -0.599734
O	      7.83117      8.28326     10.34813         0.050209      0.184785      0.057147
