# total energy = -212.22020434 eV
 
CRYSTAL
PRIMVEC
0.007769 6.154947 6.246059 
6.257436 -0.014313 6.268109 
4.157904 4.104245 0.004268 
PRIMCOORD
36 1
Li	      2.17803      8.14270      6.23582         0.085043     -0.048977      0.023978
Li	      4.26587      8.09860      8.39227        -0.037372      0.152589     -0.011917
Li	      6.20006      8.20925     10.28601        -0.005525      0.005563     -0.047845
Li	      2.15511      2.00158      4.17895         0.008768      0.006622     -0.026744
Li	      4.20525      4.03446      4.16352         0.016931      0.018406     -0.018256
Li	      4.14464      8.19208      4.21473         0.006740     -0.065827     -0.001532
Li	      4.17087      6.23586      6.36022        -0.031986      0.017921     -0.032148
Li	      4.06728      4.24250      8.36550        -0.026261     -0.047423     -0.038468
Li	      6.11059      6.25369      8.37320        -0.003108     -0.006504      0.007457
Mn	      2.08038      4.04873      2.15342         0.167113     -0.324298     -0.016158
Mn	      6.20936      4.11117      6.21502        -0.109175      0.175931     -0.180741
Cr	      4.15260      2.06813      6.23532        -0.096880      0.101667     -0.125040
Cr	      8.36269      6.27017     10.39628        -0.111423     -0.033200      0.213765
Fe	      4.22292     10.13555      6.19897         0.036800      0.081352      0.071173
Co	      2.18019      6.12658      8.38079        -0.402323      0.137816     -0.002974
Cu	      4.16144      6.18399      2.12082         0.059708     -0.222412      0.091562
Ni	      4.20407      6.13119     10.37455         0.069896     -0.131592     -0.032996
Ni	      6.22706      8.17230      6.25882         0.079275      0.002383     -0.022029
O	      3.97465      6.14705      4.08578         0.012362     -0.003235     -0.014805
O	      2.01530      2.08735      2.13913         0.184098      0.227532     -0.032136
O	      4.10547      4.15303      1.99280        -0.197662     -0.155424      0.155935
O	      4.19125      1.98173      4.30876         0.025425      0.146461      0.124434
O	      6.29798      4.06973      4.30965        -0.114377     -0.012191      0.253640
O	      6.17792      2.11440      6.35410         0.044406     -0.055509     -0.048043
O	      8.31144      4.11936      6.35812        -0.059859     -0.035971      0.049118
O	      2.06603      4.21911      4.04721        -0.007073      0.003914      0.024250
O	      4.27340      4.03591      6.26775         0.141825      0.000312      0.057292
O	      6.30667      6.06452      6.27668         0.034352     -0.131590      0.003329
O	      6.41017      4.06253      8.23418        -0.134673      0.149689     -0.017868
O	      8.34776      6.00702      8.35418        -0.020096      0.258575      0.041720
O	      2.05576      6.13535      6.13017         0.056764      0.148984     -0.254095
O	      4.20373      8.25304      6.23404        -0.088254     -0.134631     -0.019182
O	      4.06671      6.16591      8.39596         0.433737      0.177331     -0.063249
O	      6.25472      8.33075      8.24519        -0.113665     -0.339907      0.055933
O	      6.35079      6.15010     10.49181         0.094894      0.023284     -0.124237
O	      8.33727      8.09372     10.40194         0.001575     -0.087637     -0.043123
