# total energy = -220.12719380 eV
 
CRYSTAL
PRIMVEC
-0.010196 6.256962 6.317515 
6.204145 -0.033695 6.340945 
4.116152 4.166653 -0.002287 
PRIMCOORD
36 1
Li	      4.17637      8.27229      8.50431        -0.074101      0.048587      0.003710
Li	      4.09041      0.05835      4.14520         0.032910      0.079808      0.031868
Li	      6.13977      8.31874     10.45250        -0.090690      0.005336      0.039280
Li	      2.08819      4.20856      2.19796         0.042316     -0.045881     -0.031282
Li	      6.19604      6.24214      4.27292         0.094308      0.019850      0.012335
Li	      4.10631      4.15940      4.23272        -0.048748     -0.126331      0.043515
Li	      2.07402      4.20949      6.35292         0.069724     -0.041821      0.014727
Li	      4.12846      6.17091      6.37240         0.006354     -0.029666     -0.010963
Li	      4.06308      4.16630      8.36371         0.030506     -0.045525     -0.040035
Mn	     10.26311      6.20541      8.46755        -0.062271     -0.012684     -0.069119
Mn	      6.17069      4.14586      6.26270        -0.225578      0.021677     -0.135822
Mn	      0.04004      4.16982      4.21827         0.034771      0.035706      0.006860
V	      2.13808      8.34062      6.33439        -0.538384      0.254414      0.043793
Fe	      6.26548     10.28443      8.61426        -0.129726      0.064922      0.083899
Co	      4.11636      4.18725      0.02063        -0.079836      0.043102      0.013648
Co	      4.09927      2.10735      6.06971         0.042705      0.055574      1.013250
Co	      2.07260      6.23814      4.22974        -0.095938     -0.010543      0.020383
Co	      6.12114      6.31009      8.42963        -0.032144      0.043714     -0.124734
O	      1.97770      2.00173      1.92183        -0.172321     -0.097671     -0.204988
O	      4.18754      4.30536      2.08559        -0.007877      0.021994     -0.046608
O	      4.10510      2.07325      4.30580        -0.059659     -0.044857     -0.522830
O	      6.18556      4.17620      4.26301        -0.025503     -0.005218      0.029170
O	      6.22949      2.13646      6.23626         0.186483      0.091863      0.049991
O	      8.19872      4.07721      6.29187         0.003346     -0.401451     -0.043294
O	      1.94920      4.27322      4.24698        -0.067145      0.180585      0.021114
O	      4.03226      6.37584      4.24658        -0.064412      0.047643     -0.109379
O	      4.26286      4.06498      6.31347         0.190446      0.144062     -0.099498
O	      6.25472      6.07012      6.38012        -0.018000     -0.106032      0.008137
O	      6.19182      4.02846      8.30214         0.007573      0.000715     -0.003085
O	      8.26987      6.20223      8.58408         0.168185      0.049250      0.113869
O	      2.03539      6.35637      6.20423         0.066230     -0.016368      0.122063
O	      3.99749      8.39043      6.38892         0.234360      0.018493     -0.192060
O	      4.06284      6.23123      8.47224         0.153069      0.016044     -0.054414
O	      6.15657      8.38576      8.41848         0.041063     -0.121679      0.016914
O	      6.30927      6.11936     10.54956         0.193138     -0.106343     -0.094639
O	      8.34943      8.19621     10.69522         0.194845     -0.031266      0.094221
