# total energy = -214.51444977 eV
 
CRYSTAL
PRIMVEC
0.018002 6.229918 6.290159 
6.217326 0.002600 6.305156 
4.168032 4.186023 -0.021266 
PRIMCOORD
36 1
Li	      2.07446      2.06727      0.05626         0.014325     -0.004794     -0.058486
Li	      2.08683      0.03482      2.10170         0.029698     -0.059317      0.031744
Li	      2.10371      4.12948      2.09213         0.094206      0.029674     -0.231208
Li	      6.23805      6.23939      4.20380         0.148192     -0.143358      0.045584
Li	      4.13193      4.25963      4.30447         0.162136     -0.138374      0.103372
Li	      6.15150      4.30409      6.31489         0.005163      0.047585     -0.084229
Li	      4.26779      6.11054      6.27370         0.006911      0.013274      0.108653
Li	      4.14317      4.18476      8.33405        -0.140400      0.057223      0.052795
Li	      6.20991      6.27881      8.30082        -0.053713      0.149843      0.074668
Mn	      0.04257      6.20340      6.27231        -0.091927      0.066402      0.064665
Mn	      4.06179      2.07845      2.09755         0.184590     -0.100069      0.116969
Mn	      8.26620      4.20542      4.19529         0.023335     -0.004117      0.029139
V	      0.10212      4.05606      4.02698         1.046744     -0.708327      0.292466
Fe	      6.25127      2.18091      4.15778        -0.073690     -0.049621      0.132198
Fe	      8.23215      6.35009      6.43563         0.183550     -0.204235     -0.171182
Cu	      2.16197      6.17886      4.09067         0.036517      0.367617      0.030306
Cu	      2.13563      4.13357      6.31987         0.062492      0.064488      0.186990
Ni	      0.10174      2.03353      2.08503         0.001514     -0.203919     -0.242924
O	      1.95521      6.15561      6.11785        -0.041844     -0.079742      0.088802
O	      2.15337      2.07397      2.05221        -0.074290      0.063995      0.046046
O	      4.17513      4.09470      1.86053        -0.007994     -0.046466      0.037380
O	      4.21262      1.99036      4.32036        -0.035206      0.439355      0.027753
O	      6.34873      4.11391      4.28563        -0.424954      0.108161      0.081161
O	      6.21379      1.91501      6.28722         0.057357     -0.057930     -0.054384
O	      8.43150      4.22928      6.16462         0.026966     -0.025580      0.078816
O	      1.94282      4.17327      4.07369        -1.238858     -0.204030     -0.124083
O	      4.21964      6.36525      4.16163        -0.056905      0.882759     -0.015019
O	      4.12491      4.11350      6.31036         0.133710      0.299433     -0.000243
O	      6.30463      6.32294      6.34017        -0.319647     -0.078837     -0.053824
O	      6.20123      4.16841      8.55565         0.008287      0.047101      0.160842
O	      8.41502      6.24753      8.39092        -0.001257      0.016457     -0.208408
O	      4.20316      8.45411      6.09245        -0.057387     -0.079607     -0.285365
O	      4.12706      6.34618      8.58752         0.025259      0.021648     -0.146565
O	      6.06519      8.32397      8.54978        -0.041885     -0.017538     -0.034330
O	      6.12968      6.21026     10.58837         0.004700     -0.348186     -0.047869
O	      8.33397      8.45974     10.46710         0.404306     -0.120968     -0.032230
