# total energy = -223.46438808 eV
 
CRYSTAL
PRIMVEC
-0.016597 6.173908 6.190517 
6.437725 -0.004550 6.177711 
4.300775 4.116247 -0.011690 
PRIMCOORD
36 1
Li	      4.28856     10.25945      6.17883         0.028793     -0.011052     -0.001695
Li	      4.25679      0.02228      4.06840        -0.018020     -0.026293      0.026727
Li	      6.45849      6.17944      4.16828         0.009126      0.050303      0.036290
Li	      4.31622      4.06216      4.15037        -0.047044     -0.002311      0.043334
Li	      8.48484      6.22422      6.14312        -0.066998      0.015003     -0.021259
Li	      8.58177      6.15432     10.19693         0.031232     -0.005230     -0.049107
Li	      4.31984      6.14233      6.22290         0.003697     -0.001178     -0.036109
Li	      4.25909      4.20499      8.16003        -0.032874      0.044040      0.003763
Li	      6.49867      6.14721      8.18862         0.148623      0.056528     -0.042907
Mn	     10.68287      6.17865      8.23374        -0.150660     -0.006090      0.178938
Mn	      2.18192      4.13469      2.12011         0.000564      0.113976      0.090742
Mn	      6.41208      4.20074     10.26465         0.104104     -0.029962     -0.062688
V	      2.16771      8.17112      6.15249        -0.036850     -0.086119     -0.068732
Fe	      4.34056      8.15836      8.30707         0.014243      0.011927      0.059986
Fe	      6.38927      8.12185     10.33003        -0.045958      0.039358     -0.089697
Fe	      6.25724      4.26562      6.12201         0.125965      0.067586     -0.021137
Co	      6.44614      4.11803      2.13180         0.131958     -0.060609     -0.053009
Co	      2.28013      4.07340      6.09928         0.084039      0.108697      0.156538
O	      2.19605      2.04439      2.06758         0.064968     -0.025055     -0.062246
O	      4.45771      4.05991      2.08834        -0.023671      0.124961     -0.037394
O	      4.44295      2.00435      4.08262         0.011027      0.008993     -0.009923
O	      6.46914      4.01562      4.11130        -0.026366     -0.010703     -0.071985
O	      6.55050      2.08012      6.23550         0.048388      0.007705      0.051934
O	      8.52136      3.90084      6.33308        -0.028419      0.004812      0.002455
O	      2.14921      4.15746      4.05847        -0.054600     -0.047092     -0.171709
O	      4.26404      6.37616      3.94257         0.030490      0.023626     -0.106658
O	      4.34389      4.13948      6.14446        -0.139420      0.001324      0.037834
O	      6.43820      6.16786      6.15249        -0.028605     -0.047829      0.025855
O	      6.38566      4.15598      8.20636         0.075987     -0.202166     -0.002675
O	      8.68132      6.02138      8.16674        -0.087295     -0.069113      0.040928
O	      2.10892      6.28999      6.37690        -0.019033      0.043810      0.009445
O	      4.16388      8.23379      6.15015        -0.113454      0.040918      0.014753
O	      4.06089      6.24318      8.25981        -0.055604     -0.038005     -0.002455
O	      6.38826      8.33196      8.24992        -0.052154      0.065843     -0.013649
O	      6.41751      6.14811     10.29923         0.003406     -0.144675      0.010333
O	      8.46637      8.18348     10.43818         0.110413     -0.015928      0.135176
