# total energy = -219.43704553 eV
 
CRYSTAL
PRIMVEC
-0.013032 6.260890 6.389603 
6.187548 -0.005201 6.381660 
4.135109 4.178601 -0.013450 
PRIMCOORD
36 1
Li	      8.31134      4.14679      4.32849         0.016252      0.018853     -0.076619
Li	      6.10484      2.16061      8.43782         0.016225      0.093360      0.006204
Li	      6.13227      6.24074      4.40796        -0.052791     -0.000319     -0.079370
Li	      8.18416      6.27175      6.45717         0.005098      0.012426      0.046530
Li	      6.16925      4.22157      6.40343        -0.046930      0.041526      0.125365
Li	      6.13510      4.24739     10.50438         0.094265      0.015951     -0.236556
Li	      4.22423      6.16742      6.33831        -0.020914     -0.025689      0.024005
Li	      4.25792      4.11127      8.50455         0.016012      0.050791     -0.016849
Li	      6.23299      6.20449      8.43942        -0.019686     -0.076190     -0.035217
Mn	      8.26049      2.10238      6.37352         0.168701      0.058679      0.115730
Mn	      4.13357      4.21496      4.22574         0.004803      0.003048     -0.219459
Mn	      8.26788      6.26964     10.54350         0.057927     -0.064604     -0.289410
Mn	      6.24353      8.27140      6.42737         0.007542     -0.001086     -0.105023
V	      4.07001      8.21896      8.59040        -0.057536      0.211693      0.229899
Co	      6.17187      0.06713      6.36935         0.024625     -0.169305      0.071678
Co	      6.16904      4.14724      2.15360        -0.014434      0.068331     -0.009717
Co	      8.01932      4.32992      8.39532         1.355365     -0.136354     -0.021180
Ni	      6.23973      8.35240     10.64949        -0.080237      0.020853     -0.088602
O	      2.11917      1.95383      2.01262        -0.086599     -0.263522     -0.041857
O	      4.15422      4.08860      2.21195        -0.018493     -0.017427     -0.103804
O	      4.12272      2.20854      4.05940        -0.080759      0.035028      0.108410
O	      6.05276      4.17679      4.09869         0.002136      0.058328     -0.046214
O	      6.36311      2.08799      6.30882        -0.215231     -0.785303      0.172685
O	      8.28280      4.22185      6.42725         0.484534     -0.106112     -0.039838
O	      2.16315      4.25497      4.17774        -0.242250     -0.038076      0.113554
O	      4.02670      6.11219      4.22326         0.025618      0.038884      0.053925
O	      4.10942      4.14325      6.11868        -0.188863     -0.009912      0.212878
O	      6.15894      6.42885      6.37295        -0.021680      0.049698     -0.031674
O	      6.25079      4.16395      8.50480        -0.718520     -0.054859     -0.089430
O	      8.26364      6.24335      8.45977        -0.010433      0.454401      0.282456
O	      2.05327      6.09440      6.59372        -0.498486      0.170238     -0.059570
O	      4.07594      8.37816      6.63078         0.038355      0.541578     -0.310863
O	      3.94624      6.34367      8.62550         0.041904     -0.120516     -0.077074
O	      6.08755      8.45666      8.55803         0.043283     -0.038054     -0.094658
O	      6.33618      6.29028     10.66594        -0.065834     -0.081045      0.397788
O	      8.32234      8.23658     10.78958         0.037031      0.044709      0.111881
