# total energy = -217.17174150 eV
 
CRYSTAL
PRIMVEC
0.017398 6.238599 6.283944 
6.350031 0.005471 6.295705 
4.219207 4.152760 0.017739 
PRIMCOORD
36 1
Li	      4.21834      4.11997      0.07084        -0.024913     -0.000412      0.001424
Li	      8.50022      8.33051     12.51723        -0.013446      0.027714      0.022976
Li	      6.23563     10.30376      8.35204        -0.049471     -0.028250      0.021314
Li	      4.34053      8.40926      8.29799         0.019721      0.027904      0.013174
Li	      6.41926      8.26959     10.54985         0.003205     -0.024864      0.029204
Li	      8.54909      4.20827      8.29980         0.009080      0.010863     -0.020184
Li	      4.26259      4.16906      4.10043         0.012253      0.009573     -0.002893
Li	      4.15065      8.32501      4.30675         0.005501      0.000787     -0.046852
Li	      8.40906      8.33669      8.48749        -0.015167     -0.011254     -0.015276
Mn	      8.48682     10.31200     10.50427        -0.062614     -0.057496      0.020318
Mn	     10.49857      6.20393      8.42141         0.000618      0.062337     -0.009776
Mn	      6.34046      8.33496      6.32120         0.036042     -0.002751      0.092744
Mn	      6.35082      6.22691      8.48601         0.027082     -0.015434      0.049754
V	      2.20579      2.14810      3.96828         0.023357     -0.023940      0.252322
Fe	      6.29701      4.10479      6.32165         0.010903      0.084679     -0.077649
Cu	      8.38304      6.35943     10.52057        -0.004246     -0.093416     -0.017955
Ni	      8.44509      6.22462      6.33575        -0.013448     -0.007787      0.028777
Ni	      4.21928      6.25146      6.32353         0.038602     -0.022907     -0.009531
O	      2.21448      2.11193      2.24496         0.082788      0.013252     -0.419958
O	      4.21192      4.33535      2.09577         0.025478     -0.080795     -0.019296
O	      4.05077      2.04098      4.24759         0.059898      0.072874     -0.119707
O	      6.42287      4.31117      4.28294        -0.070794     -0.003127     -0.103617
O	      6.26029      2.14751      6.41754         0.098016     -0.137852     -0.057703
O	      8.33300      4.17837      6.19295         0.043792     -0.133512      0.053706
O	      2.17460      3.95029      4.32142         0.012263      0.089935     -0.015224
O	      4.49860      6.21693      4.13617         0.064724     -0.020143      0.071950
O	      4.19855      4.16121      6.26308        -0.067844      0.045011     -0.015606
O	      6.33576      6.27694      6.27874        -0.030017      0.021105      0.038491
O	      6.35487      4.09218      8.28501        -0.013231     -0.074341      0.149137
O	      8.29932      6.22030      8.48359        -0.071477     -0.003707      0.105484
O	      2.20052      6.08061      6.20509        -0.093435      0.005574     -0.024631
O	      4.44460      8.26346      6.30027         0.019769      0.113832     -0.010811
O	      4.41387      6.22876      8.49616        -0.097430      0.000036     -0.058878
O	      6.36811      8.28540      8.20097        -0.008388      0.123839     -0.047525
O	      6.18985      6.25705     10.50244         0.049567     -0.016925      0.116065
O	      8.42730      8.36351     10.53887        -0.006741      0.049597      0.026231
