# total energy = -92.69220579 eV
 
CRYSTAL
PRIMVEC
2.003630 4.047850 2.003296 
4.093653 -4.104076 0.026353 
4.067138 -0.000135 -4.066174 
PRIMCOORD
16 1
Li	      3.96941      1.90006      1.94100        -0.206727      0.448957      0.071182
Li	      3.98274      0.02667      0.03157        -0.334906     -0.018574     -0.167836
Li	      4.03217     -1.95598     -1.98131        -0.186255     -0.114444     -0.193845
Li	      5.94225     -0.08365     -1.99443        -0.031783      0.276820     -0.283346
Mn	      9.95035     -0.05541     -1.98613         2.781243     -0.242771     -0.019312
Mn	      5.99948     -2.03892      0.00073         0.639828     -1.835509      1.034235
Ni	      7.98004     -0.05548     -0.01658         0.654044      0.109006      0.964637
Ni	      7.96976     -2.03911     -1.96913         0.764973     -0.874135     -0.631902
O	      5.97433     -0.16758      0.09511        -0.540000      0.748419      0.279320
O	      5.99980     -2.03549     -1.83204        -0.452777     -0.048870     -0.999948
O	      3.82042      1.97977     -0.02564        -0.127788      0.389899      0.613354
O	      3.97440     -0.00391     -2.14230        -0.508760      0.037267     -0.230040
O	      8.11776     -0.05239     -1.98602        -0.417369      0.645904     -0.601854
O	      4.09557     -2.15094      0.01015        -1.039617     -0.251324      0.050988
O	      5.96426      2.09502     -2.10630         0.054180      0.680179     -0.075200
O	      1.89317      0.11187      0.00034        -1.048284      0.049178      0.189568
