# total energy = -205.45655679 eV
 
CRYSTAL
PRIMVEC
-0.037349 6.194100 6.233132 
6.242403 -0.010423 6.206129 
4.188866 4.138622 -0.034325 
PRIMCOORD
36 1
Li	      8.19684      2.13394      6.11322         0.070100     -0.082543      0.038964
Li	      6.33890      2.05433      4.26883        -0.082002      0.000606     -0.022275
Li	      6.17679      2.18245      8.16070        -0.051924      0.051052      0.044292
Li	      8.17115      4.20404      8.24485        -0.016718      0.050605      0.010410
Li	      2.09225      2.08560      4.14837        -0.028005     -0.024664      0.028582
Li	      4.13911      4.11518      4.18496         0.013060      0.023852      0.060006
Li	      4.25943      2.00039      6.23798        -0.063535      0.022632      0.047904
Li	      6.33885      3.98727      6.25018        -0.007135      0.050349     -0.038793
Li	      6.23477      4.17442     10.24800         0.062867     -0.048709     -0.043524
Mn	      6.28779      4.10936      2.09525         0.022900      0.074618     -0.190143
V	      4.08017      2.19718      2.18872        -0.127261     -0.120460     -0.016190
V	      4.20786      6.18173      6.06277        -0.134264      0.011065     -0.267772
Co	      8.25695      6.17256     10.33470         0.382533     -0.158667      0.329899
Co	      6.26493      6.15898      8.27933         0.092819     -0.028066     -0.017081
Cu	      6.11551      0.12728      6.14199         0.065248     -0.150987      0.133302
Cu	      8.29436     10.19872     10.41923         0.150721      0.060315     -0.424030
Cu	      2.06517      4.11231      6.17713         0.082665     -0.000048      0.034527
Ni	      8.42693      8.18646      8.30014        -0.166269      0.049625     -0.240841
O	      8.33573      8.07126     10.28715        -0.010290      0.203541      0.301824
O	      2.27196      1.96302      2.06640         0.014137      0.062514      0.038474
O	      4.16669      3.95337      2.09023        -0.060967      0.118415      0.015037
O	      4.19900      2.05143      3.92900        -0.012268      0.048460      0.117227
O	      6.30383      4.13896      3.94759         0.145196     -0.124503      0.255995
O	      6.21451      2.01082      6.24951         0.059860      0.115218     -0.071770
O	      8.37835      4.13350      6.07055         0.016727     -0.038813      0.203885
O	      2.06841      4.26760      4.22812        -0.039970     -0.076764     -0.036568
O	      4.10642      6.19873      4.28665         0.494312      0.002192      0.255713
O	      4.07458      4.28587      6.28313         0.103791     -0.050338     -0.180532
O	      6.11791      6.27287      6.25113         0.094125     -0.092934      0.065834
O	      6.21521      4.25943      8.23061         0.194104     -0.011866     -0.005489
O	      8.18140      6.18889      8.37926        -0.176414     -0.012263     -0.862675
O	      2.12664      6.15804      6.31772        -0.043895      0.135848      0.419589
O	      4.17857      8.15986      6.38327        -0.045584      0.045632      0.020968
O	      4.27228      6.25171      8.25466         0.044822      0.043921     -0.039572
O	      6.12577      8.24289      8.20853        -0.043802     -0.028272      0.070665
O	      6.32415      6.18357     10.17262        -0.999683     -0.120560     -0.035840
