# total energy = -92.98166896 eV
 
CRYSTAL
PRIMVEC
2.013853 4.068503 2.013517 
4.114539 -4.125016 0.026488 
4.087888 -0.000136 -4.086920 
PRIMCOORD
16 1
Li	      4.01002      1.91950      1.96086        -0.153008      0.325688      0.045312
Li	      4.02348      0.02695      0.03190        -0.250254     -0.008611     -0.122987
Li	      4.07342     -1.97599     -2.00158        -0.128211     -0.079012     -0.140200
Li	      6.00303     -0.08450     -2.01483        -0.030559      0.198035     -0.206177
Mn	     10.05215     -0.05597     -2.00645         2.087652     -0.174121     -0.014435
Mn	      6.06085     -2.05979      0.00073         0.461868     -1.344731      0.727986
Ni	      8.06168     -0.05605     -0.01675         0.468069      0.072660      0.705961
Ni	      8.05129     -2.05997     -1.98927         0.556840     -0.634689     -0.448236
O	      6.03544     -0.16929      0.09609        -0.421607      0.515570      0.205466
O	      6.06118     -2.05632     -1.85078        -0.349316     -0.000820     -0.695282
O	      3.85950      2.00003     -0.02590        -0.117953      0.260703      0.471499
O	      4.01505     -0.00395     -2.16422        -0.352744     -0.002463     -0.178030
O	      8.20080     -0.05292     -2.00633        -0.263398      0.489267     -0.455730
O	      4.13747     -2.17295      0.01026        -0.746137     -0.193864     -0.000586
O	      6.02527      2.11646     -2.12785         0.072371      0.524057     -0.061578
O	      1.91253      0.11302      0.00034        -0.833615      0.052331      0.167016
