# total energy = -93.18830718 eV
 
CRYSTAL
PRIMVEC
2.024076 4.089155 2.023738 
4.135425 -4.145955 0.026622 
4.108639 -0.000137 -4.107666 
PRIMCOORD
16 1
Li	      4.05084      1.93904      1.98082        -0.099766      0.206256      0.023532
Li	      4.06444      0.02722      0.03222        -0.164045      0.000990     -0.077640
Li	      4.11488     -1.99611     -2.02195        -0.073944     -0.045019     -0.087750
Li	      6.06413     -0.08536     -2.03534        -0.028488      0.124514     -0.134544
Mn	     10.15446     -0.05654     -2.02687         1.394390     -0.113758     -0.004659
Mn	      6.12255     -2.08075      0.00074         0.299489     -0.874041      0.451982
Ni	      8.14373     -0.05662     -0.01692         0.295065      0.047795      0.466715
Ni	      8.13324     -2.08094     -2.00952         0.363203     -0.409921     -0.285734
O	      6.09687     -0.17102      0.09706        -0.313523      0.303741      0.137629
O	      6.12287     -2.07725     -1.86962        -0.260201      0.038519     -0.422533
O	      3.89879      2.02038     -0.02616        -0.100240      0.136595      0.338749
O	      4.05592     -0.00398     -2.18625        -0.195948     -0.037461     -0.131604
O	      8.28427     -0.05346     -2.02676        -0.131306      0.349731     -0.329010
O	      4.17959     -2.19507      0.01036        -0.474632     -0.142626     -0.045476
O	      6.08660      2.13800     -2.14951         0.083631      0.361328     -0.047001
O	      1.93200      0.11417      0.00034        -0.593685      0.053358      0.147345
