# total energy = -205.04461605 eV
 
CRYSTAL
PRIMVEC
0.037885 6.247247 6.379748 
6.204578 0.029202 6.387773 
4.141867 4.175792 0.014045 
PRIMCOORD
36 1
Li	      8.31403      8.36850     12.70888         0.091847     -0.045240      0.024693
Li	      6.29880      8.35866     10.63163        -0.017280      0.083668     -0.035139
Li	      8.26891      4.18183      8.50090         0.015061      0.006168      0.062429
Li	      6.19418      6.22025      4.29545        -0.057046      0.024702      0.039669
Li	      8.22214      6.28927      6.36232        -0.078223      0.037242      0.088967
Li	      6.21691      4.26181      6.33539        -0.074155      0.086763     -0.007809
Li	      8.35049      6.38450     10.60983         0.129662     -0.019593     -0.039121
Li	      8.26516      8.40286      8.65674         0.013665     -0.093997     -0.076422
Li	      6.30975      6.31234      8.46992         0.022038     -0.008452     -0.172649
Mn	      6.20276      4.18167      2.19309        -0.084623     -0.248429     -0.019557
V	      6.12920      0.08459      6.33929         0.350360      0.112604     -1.119913
V	      6.08722      2.26972      8.49147        -0.254492      0.039939      0.374813
Fe	      4.04984      4.05424      4.30942        -0.016559      0.158095     -0.062922
Cu	      4.12218      2.03641      2.19000        -0.032879     -0.013961      0.177208
Cu	      8.31381     10.41870     10.66218        -0.210099      0.094968      0.062952
Cu	      6.29370      4.28275     10.61499         0.134186     -0.344397     -0.085010
Cu	      6.24651      8.30449      6.42439         0.378693     -0.255807     -0.163940
Cu	      4.19085      6.27123      6.42308         0.083379     -0.164528     -0.051059
O	      4.24162      8.36302      6.56225        -0.440892      0.773451      0.307494
O	      3.98005      6.16402      8.65506        -0.009051     -0.040951     -0.011792
O	      8.49615      8.47836     10.69466        -0.079948     -0.015918     -0.042672
O	      1.99815      1.92778      2.09380        -0.031169      0.022492      0.007347
O	      4.21958      4.32287      2.05857        -0.023855     -0.003461     -0.287838
O	      4.10325      2.06113      4.18923         0.037970     -0.057078     -0.028662
O	      6.01686      4.13456      4.10514        -0.014829     -0.005727     -0.003870
O	      6.23945      1.99663      6.52821         0.057037     -0.655491     -0.143706
O	      8.47676      4.19604      6.39913         0.213533     -0.001541     -0.163301
O	      2.06707      4.14759      4.33012        -0.090232      0.089068     -0.174233
O	      4.12744      6.17584      3.96325        -0.015781      0.005255     -0.178162
O	      4.09570      4.25369      6.26393         0.244581     -0.028411     -0.009264
O	      6.12603      6.33905      6.44680         0.090988     -0.246003     -0.027322
O	      6.30567      4.01208      8.36085         0.012506      0.063456      0.092581
O	      8.45580      6.30022      8.46282         0.139483      0.009947      0.004697
O	      2.09331      6.18742      6.57923        -0.241834      0.250442      0.096716
O	      6.18290      8.46072      8.47527        -0.031142      0.156110      0.290472
O	      6.44225      6.28678     10.86529        -0.210900      0.234616      1.274328
