# total energy = -216.79473526 eV
 
CRYSTAL
PRIMVEC
-0.021907 6.320446 6.182650 
6.306579 -0.033212 6.194232 
4.180036 4.196930 0.002155 
PRIMCOORD
36 1
Li	      6.28161      4.20574      2.09450        -0.004923      0.038079     -0.050228
Li	      4.13389      2.12560      2.09030        -0.085633      0.018829     -0.030884
Li	      4.17543      6.28243      2.14644         0.059722     -0.002498     -0.028367
Li	      6.24913      6.30418      4.23735        -0.027654      0.029019     -0.010236
Li	      8.26013      6.31744      6.13653        -0.037037      0.016218      0.023832
Li	      6.28120      4.26574      6.13582        -0.011744      0.018050      0.011699
Li	      4.24421      8.27224      4.15668         0.044620     -0.108015      0.004780
Li	      2.17035      6.25470      4.12780         0.035310     -0.026962      0.024941
Li	      2.08352      4.12523      6.09155        -0.010845     -0.004313     -0.002811
V	      2.08594      8.38130      6.22249         0.020624     -0.115994      0.103201
V	      4.25723      4.15847      8.19702         0.012924     -0.037151     -0.055213
Fe	      0.02415      6.27329      6.15645         0.122811     -0.032683      0.094669
Fe	      6.22318      2.12463      4.16398         0.073735      0.006806     -0.083596
Fe	      2.11525      4.24896      2.11062        -0.069659     -0.097884      0.017149
Fe	      4.19371      4.26036      4.14618        -0.015608     -0.096074     -0.025568
Fe	      6.28290      6.30383      8.18342        -0.028961     -0.003390      0.159966
Ni	      4.13103      0.06106      4.13654        -0.047446      0.007594     -0.023199
Ni	      4.20111      6.31251      6.15364        -0.081323      0.053885      0.024530
O	      2.05578      2.20019      1.86756         0.023807      0.004141     -0.065015
O	      4.10622      4.20017      2.02955         0.024176     -0.002481      0.008545
O	      4.25504      2.13566      4.10149        -0.018423      0.095037      0.025061
O	      6.23647      4.11270      4.11239        -0.041425      0.025053      0.022878
O	      6.41792      1.97109      6.14371        -0.087835     -0.011056      0.003432
O	      8.43355      4.09651      6.23082         0.067354      0.059111      0.054701
O	      2.15910      4.18215      4.03114        -0.031516      0.010162      0.043427
O	      4.20179      6.18533      4.15125        -0.002107      0.110740     -0.164047
O	      4.19113      4.20640      6.26296        -0.020507     -0.114542      0.082898
O	      6.23637      6.30901      6.28785         0.157122     -0.034037     -0.077830
O	      6.15751      4.20982      8.30409         0.060891      0.018155     -0.009291
O	      8.31852      6.29573      8.23965         0.026320      0.073895     -0.004419
O	      2.04773      6.43098      6.19496        -0.149646      0.001001     -0.015389
O	      4.06667      8.44662      6.16218         0.046121      0.143216      0.012603
O	      4.23568      6.17038      8.25235        -0.000671     -0.053601      0.040102
O	      6.51102      8.33343      8.31039        -0.041133      0.046813      0.014506
O	      6.20516      6.37915     10.31617         0.090422      0.028705     -0.087708
O	      8.32732      8.44959     10.37261        -0.051860     -0.063825     -0.039121
