# total energy = -93.25411686 eV
 
CRYSTAL
PRIMVEC
2.064966 4.171764 2.064622 
4.218969 -4.229711 0.027160 
4.191642 -0.000139 -4.190649 
PRIMCOORD
16 1
Li	      4.21616      2.01817      2.06166         0.080976     -0.202921     -0.047925
Li	      4.23032      0.02833      0.03353         0.166749      0.015230      0.109756
Li	      4.28282     -2.07757     -2.10447         0.093841      0.051327      0.086681
Li	      6.31162     -0.08885     -2.11840        -0.003241     -0.131000      0.115902
Mn	      0.09331     -0.00076     -0.01072        -1.522048      0.081386      0.041021
Mn	      2.15345      2.06404     -0.02639        -0.201350      0.803475     -0.395887
Ni	      2.19216     -0.00098     -2.10939        -0.306888     -0.032940     -0.370861
Ni	      4.24621      2.06384     -2.11869        -0.270719      0.353186      0.166797
O	      6.34570     -0.17800      0.10103         0.056252     -0.297246     -0.076577
O	      6.37276     -2.16202     -1.94592         0.005093      0.130030      0.426104
O	      4.05790      2.10284     -0.02723         0.024935     -0.311756     -0.073128
O	      4.22145     -0.00415     -2.27547         0.418693     -0.137882      0.022886
O	      8.62237     -0.05564     -2.10947         0.130944     -0.117264      0.055549
O	      4.35016     -2.28465      0.01078         0.448274      0.046092     -0.175382
O	      6.33500      2.22525     -2.23723         0.144303     -0.268128      0.014986
O	      2.01085      0.11883      0.00036         0.734188      0.018410      0.100079
