# total energy = -227.77184181 eV
 
CRYSTAL
PRIMVEC
0.014145 6.253673 6.362031 
6.158079 0.023579 6.352503 
4.114221 4.171521 0.007275 
PRIMCOORD
36 1
Li	      4.08212     10.35240      6.37509        -0.020817     -0.000241      0.005641
Li	      2.15214      8.38036      6.32427        -0.044714      0.032708     -0.031756
Li	      8.25089     10.42037     10.60736        -0.002763     -0.011747      0.010044
Li	      6.15692      2.12411      8.43931        -0.017054      0.007813     -0.043045
Li	      4.10513      4.14730      4.21118        -0.075084      0.010425     -0.008721
Li	      8.20564      6.26018      6.34466        -0.045155      0.004511      0.042124
Li	      4.13230      8.37327      4.39048         0.027757      0.052575      0.063908
Li	      4.15087      6.32783      6.37198         0.023455     -0.026797     -0.003399
Li	      6.17861      6.21928      8.45567         0.025607      0.031758     -0.018206
V	      6.11023      2.02173      4.33718         0.029732     -0.043893      0.050643
V	      2.22435      6.22824      4.27095         0.192480     -0.144692     -0.009041
V	      6.19238      4.22804      6.33086         0.154182      0.069907      0.124707
Cr	      4.12046      8.32064      8.44215         0.057059     -0.030749     -0.044658
Cr	      4.15709      4.19455      8.48494        -0.036851     -0.021541     -0.045450
Fe	      2.01524      6.31929      8.30971        -0.003131     -0.130895      0.034497
Co	      8.21937      4.24199      8.46253        -0.060127      0.033647      0.006270
Co	      6.16652      8.28714      6.33894        -0.107361      0.105246      0.141890
Ni	      6.16293      6.26915      4.24850        -0.125152      0.080782      0.048528
O	      2.09461      2.03124      2.18784         0.071262      0.030955     -0.131568
O	      4.15726      4.09210      2.09450         0.002504     -0.039687      0.009490
O	      4.17362      2.05380      4.13919         0.115131     -0.025806     -0.059106
O	      6.13421      4.09449      4.31722        -0.005309     -0.097103     -0.010104
O	      6.12125      2.21021      6.22252         0.050066      0.047928     -0.122195
O	      8.04121      4.19180      6.40328        -0.173020     -0.012770     -0.048256
O	      2.03791      4.25451      4.19095         0.002253      0.132979     -0.029945
O	      4.01946      6.27167      4.25850        -0.213782      0.015819      0.020721
O	      4.21502      4.17400      6.47268        -0.329281     -0.022921      0.004276
O	      6.18549      6.21978      6.26324        -0.022885      0.121640      0.071995
O	      6.12559      4.21980      8.36036        -0.038427     -0.013013     -0.084284
O	      8.22971      6.35672      8.64672         0.027747      0.021801      0.078008
O	      2.07298      6.21657      6.32140        -0.022642     -0.339958     -0.134026
O	      4.15262      8.33922      6.46811         0.587933     -0.022258      0.044977
O	      4.01486      6.25064      8.50370         0.002437      0.033458      0.003620
O	      6.18271      8.41639      8.60461        -0.034766      0.021273      0.092470
O	      6.28154      6.42465     10.63034         0.029524      0.143399     -0.006579
O	      8.17432      8.28552     10.54413        -0.020807     -0.014555     -0.023469
