# total energy = -221.49274462 eV
 
CRYSTAL
PRIMVEC
-0.024570 6.203989 6.347162 
6.435426 -0.015034 6.336307 
4.281719 4.120028 -0.001189 
PRIMCOORD
36 1
Li	     10.62752      4.13609      6.33574         0.045672      0.031355     -0.040601
Li	      6.48326     10.15570      8.56099         0.041909     -0.047175     -0.023683
Li	      4.38947      8.20815      8.51184        -0.015729     -0.014370      0.002941
Li	      8.38099      4.22714      4.28524         0.042375      0.025643     -0.016827
Li	      6.36413      8.29741     10.46012         0.023510     -0.038342      0.042753
Li	      2.31725      1.98082      4.21871         0.004599      0.083917      0.007552
Li	      6.57617      4.15161      6.19927        -0.009694      0.044763     -0.029192
Li	      6.38554      8.22497      6.53368        -0.004484     -0.028496     -0.014029
Li	      8.39506      8.26017      8.48317         0.022287     -0.042695      0.039458
V	      6.53249      2.08880      8.34412        -0.151510      0.139290      0.073325
V	      2.06616      6.16291      4.32070        -0.165751      0.071593     -0.246962
V	      4.28536      6.10382      6.43709        -0.144030     -0.093811      0.047680
Cr	      4.23339      8.22928      4.24828        -0.061995      0.058697      0.056062
Cr	      6.36543      6.22562      8.43612         0.068354     -0.106301      0.167693
Fe	      4.54507      4.01963      4.21359        -0.160773      0.141851      0.053982
Cu	      8.57598      2.08728      6.34959         0.008740      0.035009     -0.032102
Cu	      8.59831      4.15832      8.33995        -0.015261     -0.251689      0.058154
Cu	      4.28598      2.08455      6.27505         0.065983      0.287780     -0.094056
O	      2.02828      2.21430      2.02708         0.068686     -0.000525      0.195764
O	      4.38293      4.39263      2.23879         0.024511     -0.093593     -0.116681
O	      4.26287      2.14757      4.28607        -0.012885     -0.146731     -0.207565
O	      6.39956      4.12582      4.22041         0.253024      0.053689     -0.013018
O	      6.59373      2.10210      6.48700         0.014967      0.011477     -0.166501
O	      8.62025      4.27859      6.36865         0.011857     -0.127815      0.020140
O	      2.00954      4.25935      4.09551         0.107709      0.006725      0.006683
O	      4.14704      6.19733      4.24187         0.023432     -0.040782     -0.012761
O	      4.23644      4.23787      6.21941        -0.012592      0.052589      0.020518
O	      6.19769      6.20087      6.45408         0.001178     -0.023205     -0.041457
O	      6.26149      4.01066      8.59342        -0.085869     -0.000646     -0.017395
O	      8.52091      6.16130      8.44492         0.021439      0.091852      0.149839
O	      2.20249      6.04806      6.19877         0.005063      0.007763      0.195141
O	      4.14023      8.07645      6.25409         0.064555      0.006168     -0.020081
O	      4.34011      6.17389      8.33021         0.014704     -0.019852     -0.006532
O	      6.40192      8.13699      8.48419        -0.025406      0.063559     -0.012834
O	      6.53264      6.10574     10.50620        -0.069472     -0.083262      0.049050
O	      8.63868      8.05491     10.61162         0.000898     -0.054431     -0.074456
