# total energy = -228.86716345 eV
 
CRYSTAL
PRIMVEC
0.016346 6.225320 6.377808 
6.244512 0.027079 6.367111 
4.160521 4.140370 0.020773 
PRIMCOORD
36 1
Li	      4.14519      4.15101      0.06106         0.037054      0.036637      0.062816
Li	      4.12860      2.09235      2.14979         0.022122     -0.042638     -0.020310
Li	      4.15562      0.05134      4.24678         0.003139      0.022508     -0.042625
Li	      2.13200      4.11865      2.16988         0.011283      0.015708      0.029939
Li	      2.06848      2.09489      4.21329        -0.010565     -0.001398     -0.028732
Li	      6.26438      4.16532      6.32584        -0.016885     -0.022500     -0.021995
Li	      4.20602      8.23196      4.29075         0.045521     -0.039287     -0.000523
Li	      8.34568      6.24670     10.60184        -0.003218     -0.020262     -0.047607
Li	      8.32973      8.29523      8.50466        -0.001523     -0.042289     -0.073020
V	      8.40937      2.23179      6.34133        -0.123792     -0.048810     -0.132001
V	      6.22781      6.05295      8.56651        -0.017803      0.186023      0.075622
V	      2.04135      4.19780      6.32650        -0.032249      0.004995      0.015988
Cr	      2.13705      6.23764      8.50011         0.018802      0.030358     -0.040116
Cr	      8.34816      6.19018      6.40730         0.030081      0.057971      0.145147
Fe	      6.24739      8.29292     10.63137         0.056112     -0.000013      0.076393
Fe	      4.12851      4.19937      4.21868        -0.013858      0.044739      0.045256
Co	     10.36410      6.28273      8.56441         0.049596     -0.096472      0.018310
Ni	      4.19600      6.21778      6.35001         0.054749     -0.058587     -0.015331
O	      2.06286      2.02079      1.93588        -0.238710     -0.039016      0.056388
O	      4.25763      4.17169      2.21707        -0.014554      0.469106     -0.075519
O	      4.22084      2.12116      4.36647        -0.057206     -0.034721     -0.010287
O	      6.22969      4.08364      4.14297        -0.001053      0.103387     -0.002909
O	      6.23619      2.11341      6.33753        -0.003694     -0.028832     -0.004850
O	      8.33938      4.13729      6.40920        -0.024221      0.043063      0.030866
O	      2.12655      4.13753      4.37969         0.001568     -0.002437     -0.047536
O	      4.18943      6.16211      4.28280         0.036102      0.077018     -0.174065
O	      4.13396      4.08913      6.30856         0.011802     -0.008905     -0.012504
O	      6.29526      6.29698      6.51758         0.159909     -0.004605      0.041386
O	      6.21873      4.28239      8.53233        -0.039233     -0.510438     -0.024301
O	      8.23719      6.23481      8.42235         0.185673     -0.024637     -0.103056
O	      2.12517      6.23421      6.47254        -0.087257      0.003274      0.071748
O	      4.09994      8.30095      6.36001         0.052256      0.124345      0.024957
O	      4.21908      6.22057      8.43910        -0.005296     -0.009451      0.094418
O	      6.25800      8.30706      8.49102        -0.035748     -0.027261     -0.003588
O	      6.26145      6.34816     10.45052        -0.038776     -0.155949     -0.019653
O	      8.26195      8.30222     10.87926        -0.010128     -0.000624      0.111296
