# total energy = -226.19974216 eV
 
CRYSTAL
PRIMVEC
0.047994 6.199750 6.488682 
6.307500 0.014225 6.521070 
4.194627 4.144902 0.019451 
PRIMCOORD
36 1
Li	      4.16582      4.22169      0.13878         0.097098     -0.049284      0.101120
Li	      2.03210      2.02114      0.12579        -0.018765     -0.079248      0.154003
Li	      6.21580      4.22018      2.23587        -0.039176     -0.015769     -0.111628
Li	      6.33662      2.07451      4.44729        -0.111992      0.008579      0.069457
Li	      4.24740      6.09485      2.19819        -0.004432     -0.106163     -0.065754
Li	      2.17978      4.15598      2.12910         0.094601     -0.006527     -0.082147
Li	      4.20049      4.23403      4.19465        -0.080291     -0.062116     -0.013706
Li	      2.22575      6.24261      4.30212        -0.048296     -0.110234      0.072842
Li	      4.23424      6.24362      6.37451        -0.054407      0.039522      0.028464
V	      4.39352      6.12071     10.85904        -0.181471      0.303746      0.174047
V	      6.32380      4.10803      6.49319        -0.157480      0.076494     -0.040496
V	      2.06912      4.32371      6.43490         0.617623      0.124152      1.237728
Cr	      4.24010      2.05384      6.48432         0.003972      0.105923     -0.112653
Cr	      8.39993      8.27895      8.69105        -0.387433     -0.047518     -0.435889
Fe	      4.16821      2.20612      2.25402         0.284768     -0.151916     -0.451244
Fe	      6.18558      6.19510      4.25852         0.501128      0.236815      0.132651
Cu	     10.47794      8.21350     10.81606         0.133353      0.082612      0.241564
Cu	      6.35970      6.19089      8.68692        -0.127550      0.254990     -0.098423
O	      2.20798      2.08955      2.26424        -0.231974     -0.010869      0.091549
O	      4.21752      4.06976      2.22467         0.033847      0.253249      0.093331
O	      4.20977      1.98254      4.35422         0.034490     -0.094641      0.077780
O	      6.45676      4.20450      4.45508         0.042304     -0.142653     -0.120668
O	      6.22681      2.17527      6.51776        -0.007097     -0.115202     -0.003263
O	      8.38284      4.18892      6.41381         0.041221     -0.105612     -0.040931
O	      2.15056      4.12647      4.63645        -0.456646     -0.210566     -1.545577
O	      4.28283      6.20892      4.32231        -0.298588      0.593622     -0.074873
O	      4.13124      4.08829      6.61434         0.444982     -0.026588      0.004954
O	      6.41291      6.21923      6.33689        -0.055090     -0.162947     -0.201344
O	      6.20482      4.24797      8.47749         0.094788     -0.263329      0.301025
O	      8.33793      6.26647      8.53113         0.166245     -0.053725      0.149431
O	      2.17482      6.05922      6.52407         0.062222      0.519719     -0.071864
O	      4.46750      8.22174      6.70502        -0.966036     -0.138023     -0.129444
O	      4.29912      6.18560      8.85268        -0.034386     -0.042062      0.074659
O	      6.36233      8.18552      8.49997         0.053174      0.059166      0.473510
O	      6.19494      6.19030     10.98729        -0.024349     -0.521492      0.051211
O	      8.30655      8.33946     10.69356         0.579645     -0.142104      0.070582
