# total energy = -218.08422812 eV
 
CRYSTAL
PRIMVEC
-0.021403 6.218730 6.175941 
6.201015 -0.003651 6.157696 
4.163359 4.163312 -0.032475 
PRIMCOORD
36 1
Li	      4.14225      2.18811      2.06413        -0.010302     -0.006161      0.026249
Li	      6.21170      8.32008     10.23859        -0.035024      0.019903      0.017228
Li	      4.12769      6.27898      2.09924         0.052101     -0.050862      0.051077
Li	      8.15414      4.21888      8.36318         0.003784     -0.112389      0.028561
Li	      2.09095      2.08496      4.00222         0.044888      0.042003      0.028062
Li	      4.11898      4.14928      3.98061        -0.029168      0.022203      0.010276
Li	      4.11332      2.12180      6.17870        -0.002554      0.057423     -0.131610
Li	      6.18491      4.11266     10.14358        -0.011801     -0.069987      0.067584
Li	      6.36887      6.09891      8.21642        -0.098615      0.094166     -0.077574
Ti	      4.15879      6.38352     10.15872        -0.139522      0.575338      0.078942
Mn	      2.05149      2.07339      0.04759         0.054484     -0.035521      0.028425
Mn	      2.07452      4.09874      6.12687        -0.007560     -0.105771     -0.138336
Mn	      4.20091      6.21721      6.10585         0.084209     -0.093581     -0.056910
Fe	     10.26078      4.26467      6.22071         0.088725     -0.072825     -0.092566
Co	      6.20864     10.36782      8.20529        -0.106907      0.053690      0.107531
Co	      2.03396      6.21396      4.14081         0.023263     -0.090461     -0.016267
Cu	      8.34821      8.18818      8.22457        -0.007492      0.098401     -0.113752
Ni	      6.18838      4.14070      6.15971         0.044899     -0.138878     -0.326560
O	      6.11753      4.14520      8.11484        -0.134846     -0.024350      0.422335
O	      2.08244      1.93509      1.95890         0.028561     -0.051592      0.108417
O	      4.31250      4.13545      1.97177         0.020802      0.033101      0.188669
O	      4.17430      1.95800      4.04488         0.060714     -0.601190     -0.063057
O	      6.37599      4.14628      3.99716         0.140686      0.033131     -0.159562
O	      6.24224      2.04729      6.15735        -0.095204      0.070168      0.038004
O	      8.29762      4.14667      6.03425         0.006079      0.017018      0.044754
O	      2.00638      4.26531      4.21798         0.012903      0.110473     -0.063385
O	      3.94056      6.24895      4.22935        -0.079832     -0.009669     -0.124244
O	      4.05737      4.25955      6.02474         0.199726      0.192035      0.002124
O	      6.27714      6.34735      6.11479        -0.019468     -0.116703      0.023097
O	      8.28467      6.24163      8.43682        -0.004957      0.160688      0.017170
O	      1.93680      6.11518      6.19514         0.066272      0.219633     -0.070708
O	      4.19495      8.23610      6.19913        -0.250366     -0.061305      0.041460
O	      4.04022      6.16582      8.20109         0.013329     -0.110749      0.028297
O	      6.32815      8.41575      8.05134         0.077002     -0.043618      0.189892
O	      6.13115      6.19865     10.34521         0.016929     -0.015567     -0.033040
O	      8.25331      8.19926     10.46569        -0.005736      0.011806     -0.080584
