# total energy = -224.69198071 eV
 
CRYSTAL
PRIMVEC
0.023699 6.301824 6.187187 
6.399300 0.022638 6.187890 
4.280139 4.215780 0.001007 
PRIMCOORD
36 1
Li	      8.49624      4.25250      4.24971        -0.014436      0.037038     -0.032284
Li	      6.39739      2.18335      4.21295         0.007158      0.038002     -0.042873
Li	      6.37396      2.08421      8.17564        -0.013861     -0.022200      0.018969
Li	      8.61491      4.27892      8.16930         0.029216      0.038577      0.022333
Li	      4.30410      4.16874      4.14055         0.017062     -0.005122      0.062650
Li	      4.35518      2.10142      6.14854         0.028618      0.018923     -0.037740
Li	      6.47853      4.10666      6.13166        -0.010311     -0.026465     -0.009491
Li	      2.16367      6.28183      4.09639        -0.008425     -0.048978     -0.014619
Li	      2.25524      4.20461      6.14849         0.066840      0.011597      0.003740
Ti	      6.45138      4.27747     10.27676         0.148327      0.034889     -0.182267
Mn	      6.36157      4.25369      2.09861        -0.046913     -0.030054      0.032575
Mn	      4.27352      2.18141      2.11523         0.028666     -0.108367      0.056250
Mn	      6.48039      6.33435      8.19293         0.015859     -0.004492     -0.071326
Fe	      6.46525      6.31159      4.18763        -0.068178      0.079678      0.012604
Fe	      4.26422      6.21712      6.14313         0.078193      0.109305      0.101155
Fe	      8.55728      8.32057      8.25979        -0.052371      0.119043      0.064542
Co	      8.48677      2.16202      6.17590        -0.084660     -0.050190      0.033132
Cu	      6.30671      0.12085      6.16850        -0.017008     -0.084880     -0.087750
O	      2.08288      2.00030      2.01634         0.002655      0.017791     -0.013081
O	      4.24944      4.05584      2.12796        -0.082278      0.101932      0.057673
O	      4.15181      2.13003      4.06162         0.130243      0.007913      0.028069
O	      6.40981      4.34481      4.01962        -0.009265     -0.115095      0.064065
O	      6.55987      2.04918      6.15407         0.109337      0.054554     -0.001418
O	      8.56303      4.08054      6.19103        -0.082892     -0.128662     -0.013222
O	      1.95676      4.11875      4.15754        -0.167971      0.069950     -0.000205
O	      4.34058      6.41157      4.21250        -0.022072      0.022837     -0.107579
O	      4.27269      4.30068      6.27946         0.009138     -0.082043     -0.080387
O	      6.33209      6.34299      6.21259         0.011541      0.029457     -0.109855
O	      6.27360      4.16859      8.37442         0.074747     -0.097908      0.106034
O	      8.44207      6.39664      8.20502         0.103222     -0.150575     -0.025225
O	      2.21342      6.42028      6.28493         0.000644      0.077964     -0.009327
O	      4.14136      8.45842      6.19912        -0.071098     -0.049640      0.026279
O	      4.44050      6.43973      8.18255        -0.060553      0.068197      0.014421
O	      6.55456      8.57291      8.29312        -0.095235      0.105446      0.011504
O	      6.46885      6.20973     10.15181         0.000279     -0.062666      0.140708
O	      8.70427      8.41397     10.36783         0.045781      0.024246     -0.018054
