# total energy = -219.52014560 eV
 
CRYSTAL
PRIMVEC
-0.001104 6.173094 6.247710 
6.206813 -0.011237 6.257856 
4.134601 4.118965 -0.004191 
PRIMCOORD
36 1
Li	      6.26567     10.23899      8.37213        -0.004130      0.013637     -0.004685
Li	      6.15656      8.25927     10.33334        -0.036123      0.024146      0.043392
Li	     10.27802      6.19422      8.37035         0.018039      0.023358     -0.006784
Li	      8.15854      6.25264      6.30762         0.012028     -0.013019     -0.023147
Li	      6.15132      4.20027      6.21858         0.026492     -0.006535     -0.041723
Li	      8.24195      6.17165     10.32846        -0.041345      0.006608      0.012435
Li	      6.29299      8.12519      6.32258         0.001458      0.017796     -0.001276
Li	      4.23321      6.09964      6.32394        -0.001185      0.007332     -0.006196
Li	      6.21229      6.20208      8.25319         0.027579     -0.028055     -0.011868
Ti	      0.06495      0.08195      0.08124         0.328260      0.328784     -0.187579
Mn	      2.05228      2.05199      0.04987        -0.160374     -0.183027     -0.017652
Mn	      6.20847      6.15896      4.20425         0.044802     -0.150136      0.042669
Mn	      4.13348      8.21287      4.14465         0.194081     -0.183425     -0.191904
Mn	      8.21295      8.19545      8.24201         0.035598     -0.061691      0.250933
Co	      4.15213      4.13122      4.27947        -0.232254      0.127232      0.013624
Ni	      4.11177      6.16427     10.38911        -0.111239      0.101576      0.084235
Ni	      4.20004      8.15070      8.32909         0.106432     -0.081959     -0.020735
Ni	      8.23109      4.18775      8.32051        -0.100686      0.050234     -0.033986
O	      2.13740      2.11364      2.17169        -0.153529     -0.075178      0.013740
O	      4.09252      4.07009      1.99017         0.096915      0.099894     -0.151424
O	      4.03418      2.09924      4.12095        -0.133099     -0.360719      0.100323
O	      6.13735      4.25212      4.16015         0.489058      0.172225      0.018673
O	      6.30403      1.95694      6.19525         0.017963     -0.305030      0.036621
O	      8.32352      3.98977      6.24929         0.059387      0.027291      0.034345
O	      1.99719      4.04450      4.13109        -0.213870     -0.003224      0.145418
O	      4.26336      6.22873      4.15406        -0.042810      0.284588      0.036876
O	      4.14273      4.11508      6.34082         0.016475      0.058146      0.105349
O	      6.21620      6.17670      6.05376        -0.016338      0.014380     -0.130719
O	      6.14690      4.11401      8.49510        -0.085135     -0.020384      0.054252
O	      8.26741      6.26522      8.31571        -0.001710      0.026120     -0.029617
O	      1.96365      6.28451      6.24355        -0.279906      0.018108      0.054217
O	      4.04000      8.26203      6.15765         0.073894      0.008220      0.001524
O	      4.15232      6.06381      8.37367        -0.003926      0.029029     -0.187791
O	      6.29319      8.21079      8.35442         0.116027      0.001437     -0.058953
O	      6.17507      5.99196     10.55285         0.123001      0.139615      0.176246
O	      8.41625      8.20708     10.33145        -0.169828     -0.107373     -0.118830
