# total energy = -220.17183703 eV
 
CRYSTAL
PRIMVEC
-0.009713 6.224300 6.592722 
6.039274 -0.022696 6.604338 
4.037723 4.169998 -0.026435 
PRIMCOORD
36 1
Li	      4.03694      4.09729      0.05419         0.051869      0.035058      0.041694
Li	      8.06295      2.17174      6.53385        -0.018582      0.012237      0.010638
Li	      3.94445      8.37661      8.61346         0.021731      0.015818     -0.054460
Li	      8.09270     10.29114     10.99051         0.028352     -0.014727     -0.050183
Li	      6.12082      8.24503     11.04862        -0.031354     -0.008582      0.007507
Li	      4.08592      6.16012      2.14123        -0.025276      0.059897     -0.063365
Li	      6.06606      4.08234      6.63153        -0.032441      0.006519      0.036167
Li	      3.98833      8.39425      4.51560        -0.045786      0.118087      0.055607
Li	      3.98736      6.30737      6.56490        -0.025715     -0.039466      0.052367
Ti	      4.16932      1.94995      6.51179         0.614927     -0.248977      0.094388
Mn	      1.94806      0.06876      2.18200         0.166935      0.084779     -0.075513
Mn	      5.96695      6.27765      4.35350         0.097167      0.109029     -0.071525
Mn	      5.98297      8.31050      6.67071        -0.131666      0.158767      0.121341
Mn	      6.01553      6.20720      8.80062        -0.045694     -0.067885     -0.165141
Fe	      8.14587      8.28305      8.86540        -0.025384     -0.160073     -0.316564
Cu	      2.06042      4.08709      2.06054         0.041284      0.087538     -0.020879
Cu	      4.01723      4.17701      4.37427         0.327757     -0.287455     -0.012059
Cu	      2.01831      6.28387      4.43510        -0.029175      0.136651      0.161427
O	      4.05041      6.15836      4.41251        -0.659688     -0.400553      0.059905
O	      8.08121      8.18003     10.79310         0.041124      0.093213      0.254490
O	      2.00513      2.15612      2.24954        -0.001119     -0.187721     -0.016673
O	      4.05472      4.17510      2.09887        -0.133107     -0.004407      0.116142
O	      3.86674      2.18065      4.57030         0.291310      0.269470      0.092730
O	      5.98268      4.28241      4.13843        -0.090789     -0.153267      0.024964
O	      5.98759      2.09650      6.50912        -0.594749     -0.078077     -0.030790
O	      8.03677      4.26883      6.42069         0.033237      0.333757     -0.117396
O	      2.04610      4.15374      4.75179         0.159805      0.238318      0.010019
O	      3.93572      4.02638      6.83340        -0.062138     -0.070839     -0.091304
O	      6.02460      6.34070      6.72381         0.044831     -0.061678     -0.025717
O	      6.08424      4.27697      8.73212        -0.122046     -0.103201     -0.014825
O	      7.97554      6.17107      8.58580         0.174316      0.154623     -0.221969
O	      2.02504      6.06981      6.84696         0.011421     -0.119434     -0.024202
O	      4.13078      8.31962      6.57127         0.063729     -0.030908     -0.011094
O	      4.06005      6.11995      8.86733        -0.031339      0.072269      0.052100
O	      6.03316      8.18403      8.65974         0.010837      0.085963      0.073577
O	      6.13616      6.22799     10.68389        -0.074585     -0.034743      0.118599
