# total energy = -209.91654612 eV
 
CRYSTAL
PRIMVEC
0.027979 6.121429 6.178771 
6.307391 0.019592 6.186647 
4.208866 4.089797 0.009509 
PRIMCOORD
36 1
Li	      4.20673      4.07555      0.12316         0.059967      0.000996     -0.040158
Li	      2.33497      8.16765      6.31732         0.068816     -0.078318     -0.002274
Li	      6.23670      4.07942      2.05944         0.085121     -0.046134     -0.039768
Li	      4.32102      8.25588      8.14236        -0.000848     -0.057957      0.100390
Li	      6.27871      2.09017      4.06772        -0.085667     -0.046314     -0.051387
Li	      8.45409      4.10661      8.17408        -0.009218     -0.023228      0.029680
Li	      4.25811      8.13653      4.15074        -0.007843     -0.001068      0.003085
Li	      4.17599      6.19137      6.22919         0.047184      0.052217      0.052329
Li	      4.19857      4.08593      8.16229        -0.044015      0.019359      0.119434
Ti	      8.32286      6.23481     10.28415        -0.353330      0.254053     -0.259682
Mn	      6.27569      8.18998      6.22507        -0.232293      0.065923      0.100973
V	      8.44982     10.14966     10.30239        -0.050410      0.356683     -0.616597
Co	      2.13831      2.06358      3.93021         0.187926     -0.037399     -0.009336
Co	      8.40756      6.12157      6.23881        -0.045112      0.015241      0.326395
Cu	      6.30374      2.07792      8.22431         0.140572      0.118578      0.030502
Ni	      6.28878      4.06938      6.21743         0.020572      0.117131     -0.238446
Ni	      4.24868      4.08294      4.08230         0.052446     -0.229222     -0.030797
Ni	      6.27818      6.10804      8.25440        -0.185729      0.043033     -0.056712
O	      2.26590      2.08384      2.16937        -0.072213      0.042035     -0.022226
O	      4.24170      4.26640      2.10221        -0.043234     -0.025066     -0.180677
O	      4.19650      1.98347      4.30205         0.118889     -0.104448     -1.513356
O	      6.40315      4.10943      4.16734         0.010433      0.101011      0.007516
O	      6.09968      2.06812      6.34363         0.379003     -0.140818      0.071034
O	      8.40409      4.16971      6.05648         0.039641      0.022309      0.400920
O	      2.14589      4.15467      4.22823        -0.035740     -0.083410     -0.019333
O	      4.15245      6.13847      3.98359        -0.098242      0.052109      0.048067
O	      4.13329      3.97632      6.14105        -0.047157     -0.045640      0.118854
O	      6.41043      6.19783      6.10492        -0.432985      0.095888      0.022525
O	      6.29926      4.00196      8.19206        -0.004245     -0.120710      0.192308
O	      8.22853      6.11306      8.25991         0.392303     -0.025442      1.279907
O	      2.16152      6.03074      6.04548         0.098162     -0.113783     -0.009662
O	      4.41883      8.13750      6.19630         0.129575      0.035241     -0.039463
O	      4.29048      6.11373      8.48299        -0.292582     -0.114719      0.076780
O	      6.32174      8.16784      8.09952         0.009218      0.098636     -0.204095
O	      6.35817      6.14407     10.30278         0.176076      0.011788      0.287837
O	      8.39945      8.14527     10.39966         0.024961     -0.208554      0.065435
