# total energy = -210.13998783 eV
 
CRYSTAL
PRIMVEC
0.024980 6.236928 6.230359 
6.237539 0.038623 6.216683 
4.180551 4.171089 0.003597 
PRIMCOORD
36 1
Li	      4.18225      4.24631      0.08436         0.004191     -0.054233      0.043273
Li	      2.05580      1.98341      0.11557        -0.032736     -0.032485      0.057344
Li	      2.20741      6.29669      8.33899         0.055136      0.032791      0.018542
Li	      4.10871      2.06277      2.09497         0.007500      0.049188      0.021681
Li	      6.26799      8.34679     10.33502        -0.027655      0.023648     -0.046599
Li	      4.21897      6.17129      2.03925         0.018351      0.032066     -0.021296
Li	      8.31907      6.27360     10.36557        -0.037356      0.005757     -0.019996
Li	      4.15628      6.30149      6.36582         0.028597      0.027518      0.046273
Li	      4.14061      4.27393      8.28205         0.022329      0.003495     -0.033963
Ti	      2.09170      4.34988      6.35281        -0.087737      0.352119      0.299338
Mn	      4.19963      2.06430      6.21161        -0.011942      0.065823     -0.022844
V	     10.31254      8.34181     10.39537         0.040623     -0.057412     -0.064442
Co	      2.09298      2.12962      4.13011        -0.017987     -0.090015      0.001978
Co	      6.24380      4.15515      6.21763        -0.095798      0.051927     -0.171485
Ni	      4.15416      6.27397     10.29655        -0.020239     -0.074457      0.049733
Ni	      2.14228      4.13627      2.07356        -0.113070      0.005522     -0.052719
Ni	      4.19872      4.20402      4.06619         0.095137      0.116457      0.091636
Ni	      6.22359      6.27177      8.29156         0.024951     -0.006502     -0.059971
O	      2.11581      2.22947      2.22185        -0.048707     -0.270510     -0.007537
O	      4.01825      4.16146      2.11972         0.224991      0.047168     -0.265333
O	      4.05054      2.11278      4.25989        -0.064779     -0.000153      0.075011
O	      6.22476      4.36717      4.14933         0.054883      0.033580      0.153197
O	      6.08492      2.13427      6.15086         0.066108      0.503116     -0.008345
O	      8.32261      4.31921      6.16282        -0.145634     -0.042450      0.015124
O	      2.06312      4.07897      4.22289        -0.064473      0.014044      0.121020
O	      4.32660      6.40125      4.14761         0.032036     -0.013256      0.031412
O	      4.09550      4.04854      6.18102         0.072848     -0.020942      0.128588
O	      6.37524      6.29439      6.14003         0.037143     -0.515678     -0.108257
O	      6.39429      4.19101      8.42592        -0.079039     -0.095808     -0.038004
O	      8.30017      6.15338      8.13525         0.061010      0.097486     -0.043580
O	      2.12776      6.15204      6.22306        -0.014844     -0.318444      0.060018
O	      4.30921      8.31623      6.04863         0.113313      0.036905      0.090605
O	      4.24285      6.24680      8.32936        -0.103833      0.006894     -0.145729
O	      6.26908      8.31827      8.20413         0.013155      0.134141     -0.308287
O	      6.28540      6.03715     10.33400         0.068315      0.038091      0.127754
O	      8.54430      8.29877     10.37606        -0.074789     -0.085392     -0.014140
