# total energy = -212.03478774 eV
 
CRYSTAL
PRIMVEC
0.036724 6.254567 6.210180 
6.269305 0.031759 6.214528 
4.189731 4.182692 0.011191 
PRIMCOORD
36 1
Li	      8.37582      2.17437      6.18482         0.020136     -0.032709     -0.037603
Li	      8.19992      4.24524      4.17485         0.079677      0.009498      0.006554
Li	      6.24143      2.28949      4.09681         0.017089     -0.093356     -0.051543
Li	      4.18143      6.24152      2.13007        -0.025449      0.034980      0.022044
Li	      6.37153      6.09868      4.17658         0.078293      0.057531      0.187229
Li	      4.34910      4.18514      4.22820        -0.058853     -0.031720     -0.000125
Li	      6.22693      4.22392      6.03327         0.035600      0.155028      0.072494
Li	      6.34695      8.33310      6.24473        -0.003179     -0.146119      0.004427
Li	      6.28159      6.32933      8.21957         0.037806      0.018040     -0.159091
Ti	      8.24474      4.19604      8.31280        -0.499708      0.020146      0.219304
Mn	      4.23710      2.09308      2.14053         0.247574      0.006037     -0.067551
V	      6.33843      6.39681     12.34590        -0.025157     -0.149742     -0.199436
Co	      4.10374      2.17850      6.09566        -0.071423      0.046848      0.076218
Co	      2.16477      6.27533      4.15405        -0.054421      0.024347     -0.292336
Co	      8.36059      8.33329      8.28550         0.139613     -0.091654      0.262363
Cu	      4.31655      6.22485      6.20859         0.374943     -0.046899     -0.015561
Ni	      6.28997      4.21741      2.19674        -0.017701     -0.043486     -0.086904
Ni	      4.21388      8.28907      4.19477        -0.049039      0.063101      0.010385
O	      2.22383      2.21127      2.10869        -0.025434      0.088608     -0.036495
O	      4.14229      4.07984      1.98019        -0.099264     -0.023909      0.026205
O	      4.22192      2.09379      4.03691        -0.025828     -0.006764     -0.079285
O	      6.30044      4.19084      4.13146         0.000118      0.000814      0.118109
O	      6.14050      1.91358      6.21561         0.184563      0.194139     -0.037487
O	      8.52848      4.21403      6.29688        -0.033010      0.004212      0.020568
O	      2.09415      4.35909      4.05255         0.151999     -0.082234     -0.179760
O	      4.07675      6.26937      4.28107        -0.113823     -0.160106     -0.044074
O	      4.21132      4.18567      6.31996         0.009720     -0.061906      0.270022
O	      6.44480      6.30004      6.16956        -0.340568     -0.027076      0.035838
O	      6.37515      4.12962      8.30304         0.253229     -0.046883     -0.083645
O	      8.39522      6.16593      8.22379        -0.091178      0.184925      0.243836
O	      1.87274      6.32771      6.32634         0.091275      0.076551     -0.127651
O	      4.20526      8.46923      6.31004        -0.031963     -0.060458      0.106925
O	      4.21608      6.38853      8.16827        -0.017307     -0.068235      0.094996
O	      6.22194      8.39091      8.29252        -0.132151      0.032379     -0.066519
O	      6.37847      6.18632     10.51953         0.094012      0.074283      0.161673
O	      8.43077      8.18900     10.29395        -0.100196      0.081787     -0.374122
