# total energy = -214.33047267 eV
 
CRYSTAL
PRIMVEC
0.048922 6.352585 6.219082 
6.140855 0.054943 6.213510 
4.129705 4.267624 0.000525 
PRIMCOORD
36 1
Li	      6.17712      6.46125     12.33627        -0.002866      0.100908      0.051023
Li	      2.05811      0.08341      2.12950        -0.043128      0.057419      0.036888
Li	      6.19704      2.39485      4.23688        -0.050598      0.021018      0.086041
Li	      4.12036      6.37518      2.10737         0.032435      0.007905     -0.163273
Li	      6.09101      6.28661      4.26450         0.066039     -0.046526     -0.017554
Li	      4.37933      4.49445      4.18103         0.022929     -0.049947      0.004429
Li	      4.17862      2.10375      6.18005         0.100228      0.069904     -0.024084
Li	      6.19009      4.25583      6.05309        -0.066823     -0.132080      0.061724
Li	      4.14748      6.39416      6.15002        -0.062943      0.055021      0.042407
Ti	      2.15942      4.22296      6.11922         0.057789     -0.173810     -0.074547
Mn	      8.16747      4.29412      8.26223        -0.009516     -0.314676     -0.011363
V	      4.14319      2.21400      2.19825        -0.008364      0.097733      0.062794
Co	      8.07676      2.19384      6.16941         1.217796      0.086992      0.214714
Co	      4.08770      0.05519      4.14005        -0.159533      0.081921      0.116108
Co	      4.12628      8.43350      4.17562         0.009318     -0.014821     -0.120940
Co	      4.14718      4.23785      8.23939        -0.131528     -0.042598      0.093203
Cu	      2.10130      6.33090      4.17546        -0.024640      0.049581      0.078019
Cu	      6.19684      6.37701      8.29142        -0.021858     -0.001538     -0.060696
O	      2.23046      2.22026      2.00127        -0.494228     -0.036893     -0.716566
O	      3.98254      4.07491      2.15421        -0.032682      0.144762      0.037746
O	      4.17177      2.03469      3.98029        -0.092692     -0.095466      0.037996
O	      6.30207      4.33809      4.11906         0.099263      0.162013     -0.084090
O	      6.27196      2.12484      6.22235         0.148993      0.159544     -0.029446
O	      8.22822      4.25207      6.09233        -0.288758     -0.958068     -0.075741
O	      1.92793      4.06293      4.23345        -0.009446     -0.109216      0.292111
O	      4.04070      6.50616      4.15996         0.090132      0.091884      0.072191
O	      4.05048      4.26897      6.24939        -0.223396      0.062430      0.076943
O	      6.21171      6.59285      6.35025        -0.007852      0.098079     -0.080924
O	      6.22388      4.14541      8.46307         0.138143     -0.101746      0.170116
O	      8.18720      6.30723      8.37271         0.077187      0.295570     -0.094762
O	      2.06331      6.26717      6.15004        -0.095913      0.689732      0.006897
O	      4.12202      8.47201      6.24431        -0.450359      0.091991     -0.074204
O	      4.17667      6.54848      8.39228         0.116492     -0.260499     -0.077903
O	      6.02175      8.68194      8.18311         0.181855      0.066082     -0.137778
O	      6.15636      6.19505     10.27247         0.017586     -0.204734     -0.036204
O	      8.34393      8.74425     10.30686        -0.099062      0.052132      0.338726
