# total energy = -220.91759963 eV
 
CRYSTAL
PRIMVEC
0.040981 6.210284 6.245450 
6.213417 0.038132 6.247494 
4.155515 4.154338 0.012508 
PRIMCOORD
36 1
Li	      8.24397      2.15262      6.22561        -0.026313      0.039777     -0.005996
Li	      4.23298      8.24855      8.34867         0.001174      0.028200      0.024983
Li	      8.30971      4.17338      4.24213        -0.021877     -0.010991     -0.002376
Li	      6.29714      6.16076      4.28007         0.052533      0.001060      0.002305
Li	      4.14974      4.17073      4.29329         0.018679     -0.027939     -0.019556
Li	      6.18147      4.26408      6.20286        -0.009352     -0.012641     -0.007732
Li	      2.15155      4.07135      6.20519         0.000077     -0.005699     -0.027095
Li	      4.19405      4.16944      8.22909         0.007123     -0.001147      0.011897
Li	      6.12234      6.32303      8.22133        -0.037721      0.032046     -0.020600
Ti	      2.21967      6.18851      8.27516         0.209171     -0.104411      0.100116
Mn	      2.11022      4.14892      2.12024        -0.003143     -0.040472     -0.009165
V	      6.17830      2.12736      4.16276        -0.073907      0.032565      0.061739
Co	      8.20830      6.35354      6.27139        -0.008635      0.013437     -0.051761
Co	      4.16644     10.30644      6.24174        -0.040506      0.017170     -0.011189
Co	      0.03071      2.07310      2.07723         0.013440      0.034229      0.031222
Co	      4.15644      8.27027      4.20854         0.064818     -0.050269      0.019036
Co	      2.10324      6.22688      4.18398         0.066576     -0.029706     -0.053573
Co	      4.19570      6.20028      6.23577         0.191505     -0.077482     -0.004360
O	      1.96392      1.98858      2.12505        -0.110272     -0.013771     -0.025146
O	      4.20893      4.28034      2.09550         0.075525      0.070174     -0.064665
O	      4.34763      2.04369      4.15404         0.019765     -0.029173      0.034792
O	      6.32129      4.06741      4.01916        -0.021862     -0.014145     -0.156502
O	      6.17344      2.07525      6.18753         0.037171     -0.005130     -0.025761
O	      8.29034      4.24253      6.45295         0.045616     -0.027517      0.052074
O	      2.10489      4.28859      4.05106        -0.035872      0.043296     -0.027517
O	      4.02288      6.31940      4.29409        -0.085652      0.059555     -0.043259
O	      4.19050      4.23926      6.24448        -0.032778      0.039518     -0.005238
O	      6.16258      6.23761      6.23802        -0.095099      0.001250     -0.004756
O	      6.29002      4.01702      8.53923        -0.038823     -0.054085      0.090369
O	      8.48106      6.28030      8.49578         0.094401     -0.035096      0.074505
O	      2.16603      6.19348      6.22596        -0.041205      0.015445      0.045006
O	      4.17241      8.23288      6.06691        -0.024422      0.048647     -0.052108
O	      4.10054      6.26774      8.18840        -0.282599     -0.006617      0.016617
O	      6.21829      8.42577      8.40025         0.042073      0.169408      0.010753
O	      6.37485      6.21720     10.37142         0.027401     -0.045351      0.047941
O	      8.18778      8.20417     10.43456         0.022992     -0.054136     -0.005000
