# total energy = -203.82305105 eV
 
CRYSTAL
PRIMVEC
-0.012682 6.274780 6.310790 
6.152248 -0.026688 6.324824 
4.090909 4.181796 -0.006978 
PRIMCOORD
36 1
Li	      0.01973      6.23206      6.29029         0.013907     -0.019065     -0.035697
Li	      6.08014      4.15619      2.11879         0.001990      0.028122     -0.042991
Li	      4.13873      6.29175      2.22169        -0.001237      0.006055      0.024969
Li	      2.02885      4.11222      2.25600         0.015867      0.002836     -0.000591
Li	      1.95779      2.14504      4.12667         0.029283      0.050497      0.004834
Li	      0.05612      4.16722      4.15229        -0.004702     -0.005625     -0.028714
Li	      2.11061      6.14018      4.26082         0.030968     -0.025070      0.047031
Li	      1.95593      4.27918      6.24653        -0.015773      0.021265     -0.045011
Li	      4.07151      6.30124      6.14819         0.022465      0.061150     -0.116711
Ti	      2.12316      8.19650      6.38587         0.219549     -0.629208      0.234537
Mn	      4.09358      0.01051      4.21952        -0.008293      0.021152     -0.034584
V	      8.16445      6.30082      6.41433        -0.038806     -0.013545     -0.061087
Ni	      4.09873      8.39086      8.39043        -0.025624     -0.019453     -0.028378
Ni	      6.13236      8.33908     10.50439        -0.000700     -0.020452      0.002730
Ni	      4.05684      4.26214      4.14301         0.104256     -0.089783      0.157390
Ni	      6.16269      4.14834      6.34954        -0.017868      0.032226      0.043225
Ni	      4.07825      4.22856      8.44794        -0.047676     -0.034726     -0.031567
Ni	      6.12321      6.24174      8.45424         0.036361      0.004211     -0.026317
O	      2.06340      2.13348      1.93065        -0.128567     -0.055894     -0.249420
O	      4.09998      4.07649      2.27278        -0.003603      0.100685     -0.191694
O	      4.09389      1.97574      4.29399        -0.149398     -0.083586      0.083766
O	      6.17708      4.12911      4.29151         0.122585      0.080928     -0.064241
O	      6.06765      2.07429      6.28769         0.041582     -0.068702      0.086910
O	      8.21122      4.27624      6.17428         0.126744     -0.008042     -0.047007
O	      2.17746      4.19723      4.19431        -0.188037     -0.089556      0.051502
O	      4.09297      6.17131      4.19216         0.034178      0.194365     -0.035297
O	      4.12207      3.98238      6.22860        -0.157208     -0.039328      0.072280
O	      6.34905      6.21937      6.33197        -0.027018      0.094941     -0.039387
O	      6.05191      4.24734      8.35495         0.172913     -0.079302      0.127839
O	      8.20976      6.27699      8.20225         0.098912      0.003986      0.069542
O	      2.00849      6.38549      6.29237         0.069834      0.563683      0.014993
O	      4.00188      8.33853      6.32085        -0.288004      0.025638     -0.085942
O	      4.05805      6.29978      8.60834        -0.109442     -0.003544      0.062610
O	      6.15577      8.26648      8.45069        -0.062034      0.098853     -0.094547
O	      5.99253      6.29301     10.49957        -0.062884     -0.119960      0.099474
O	      8.15693      8.53322     10.60474         0.195479      0.014247      0.075551
