# total energy = -235.99301420 eV
 
CRYSTAL
PRIMVEC
0.010157 6.398807 6.311446 
6.296713 0.021920 6.300972 
4.226047 4.287323 -0.014524 
PRIMCOORD
36 1
Li	      2.18421      2.08791      0.17919        -0.030360     -0.097002      0.004217
Li	      2.12615      0.18080      2.04275        -0.000886     -0.117103     -0.023322
Li	      4.00198      2.10012      2.10513         0.049669     -0.068385      0.088533
Li	      2.13785      4.00887      2.10352        -0.079385      0.031124      0.094176
Li	      2.11440      2.10697      4.10696        -0.042173     -0.013479      0.053318
Li	      4.28777      4.25752      4.15770         0.050276     -0.009574      0.025457
Li	      6.25462      8.55603      6.33891         0.048374      0.019965      0.019593
Li	      4.29148      6.46857      6.29256         0.056478     -0.004068     -0.051708
Li	      6.29305      6.45839      8.31171         0.022461      0.030711     -0.017927
Ti	      4.10137      4.41738      8.31347        -0.157768      0.077925     -0.081982
Mn	      8.38538      6.43861      6.30504        -0.228374      0.106658      0.056218
Mn	      8.45346      6.43160     10.45766        -0.001055      0.119037     -0.013203
V	      4.26066      4.22376      0.14254         0.596081      0.048651      0.200016
V	      0.13541      4.22598      4.24325        -0.146017     -0.105383     -0.364886
Cr	      6.36795      4.29599      6.34642        -0.174899      0.112209     -0.056076
Fe	      4.14348      0.07795      4.17675        -0.042612     -0.126222     -0.182402
Co	      0.13344      2.10908      2.14181        -0.046686      0.009613      0.104766
Co	      6.29300      8.57860     10.44789        -0.068801     -0.015857     -0.127008
O	      2.07401      2.09226      2.12382        -0.002326      0.040001     -0.080850
O	      4.13562      4.28365      1.96194         0.014487     -0.255401     -0.714455
O	      4.19958      2.06836      4.30654         0.026046      0.077351      0.000743
O	      6.38780      4.20629      4.32671        -0.012563      0.097557      0.163860
O	      6.16862      2.14693      6.26635         0.176506     -0.180648      0.055637
O	      8.40296      4.21676      6.22615         0.348413     -0.069963      0.126750
O	      1.91222      4.32643      4.14690         0.166763     -0.247265      0.009669
O	      4.22163      6.59849      4.25134         0.233974      0.036077     -0.101153
O	      4.32996      4.37390      6.39205         0.005236      0.001517      0.177905
O	      6.46631      6.27544      6.33000         0.010205      0.012603     -0.008694
O	      6.24618      4.30292      8.43101         0.020219      0.020282     -0.102004
O	      8.49842      6.62430      8.31233        -0.009886     -0.068528     -0.165417
O	      1.92602      6.42903      6.24347        -0.883590     -0.053368      0.306639
O	      4.24526      8.63434      6.16109        -0.030753      0.405421      0.374925
O	      4.20074      6.33007      8.47734         0.014200     -0.041707     -0.011960
O	      6.48219      8.52389      8.41006         0.176386      0.084801     -0.030316
O	      6.20351      6.37914     10.62279        -0.015524     -0.041962      0.347212
O	      8.57303      8.63616     10.35593        -0.042114      0.184410     -0.076266
