# total energy = -236.56553209 eV
 
CRYSTAL
PRIMVEC
-0.021785 6.412887 6.362995 
6.213902 0.001414 6.338501 
4.153333 4.270241 -0.009858 
PRIMCOORD
36 1
Li	      4.15019     10.49745      6.29997        -0.003804     -0.057626     -0.046152
Li	      4.20961      8.40934      8.30556        -0.015455      0.005707     -0.059555
Li	      4.17770      6.37933     10.42307         0.075215     -0.029424     -0.044545
Li	      6.13695      4.24603      6.39325        -0.006348      0.077783      0.016714
Li	      4.11174      8.58955      4.37884         0.009751      0.046095      0.025586
Li	      6.06762      8.56450      6.48000        -0.036647     -0.026607      0.025563
Li	      4.11612      6.54282      6.44152         0.042553      0.032516      0.018961
Li	      4.08576      4.42385      8.37344        -0.016435      0.029430     -0.054460
Li	      6.03608      6.40547      8.47132         0.002586     -0.059431     -0.013689
Ti	      8.19388      6.55894     10.67864        -0.225256      0.056420      0.075616
Mn	      2.13197      6.34922      8.39467         0.024948     -0.029211      0.025482
Mn	      6.17343      2.13693      4.23828         0.015764     -0.037196     -0.174736
Mn	      4.15605      4.27599      4.29125         0.084338     -0.000219      0.083750
V	      8.23086      4.25544      8.36288         0.081375     -0.100978     -0.073472
V	      6.23851      6.39249      4.40819         0.136168     -0.228981     -0.614150
Cr	      6.20671      2.16959      8.45255         0.272620     -0.023549     -0.007484
Co	      4.17431      2.19132      6.37157        -0.129204     -0.011471      0.038742
Co	      2.11231      8.54558      6.33911         0.280665     -0.025315      0.003690
O	      2.00918      2.18420      2.24038        -0.053996      0.033645     -0.002395
O	      4.20742      4.39559      2.26686        -0.044146      0.013766      0.007377
O	      4.01579      2.11822      4.21561        -0.174781     -0.136994      0.235264
O	      6.19539      4.43940      4.25142        -0.114683      0.181883      0.099703
O	      6.30619      2.12672      6.42759        -0.465289      0.057328      0.133280
O	      8.37592      4.30703      6.56169        -0.086215      0.199149      0.165206
O	      2.13613      4.20002      4.06240        -0.087478     -0.048307      0.075294
O	      4.17195      6.41511      4.15145        -0.036626      0.236686     -0.029527
O	      4.13633      4.18172      6.17938         0.044205     -0.045062      0.029729
O	      6.19890      6.44457      6.18075         0.082730      0.014334      0.433660
O	      6.34396      4.17733      8.42554        -0.132234      0.067557      0.044077
O	      8.35823      6.25201      8.55744        -0.065568      0.046603      0.010281
O	      2.06089      6.36926      6.20761        -0.084049      0.043355     -0.531404
O	      4.00703      8.55464      6.35228         0.507849      0.000022      0.082772
O	      4.00313      6.38631      8.44155        -0.011038      0.028713      0.029317
O	      6.19495      8.70992      8.48795         0.000996      0.042698     -0.005214
O	      6.34321      6.39823     10.52369         0.330464      0.037476      0.048815
O	      8.32347      8.41831     10.54271        -0.202977     -0.390796     -0.052096
