# total energy = -225.46863791 eV
 
CRYSTAL
PRIMVEC
-0.030677 6.389443 6.316070 
6.175507 0.010997 6.274961 
4.124643 4.239758 -0.000467 
PRIMCOORD
36 1
Li	      2.06120      2.17744      0.19464         0.007258      0.021212     -0.066042
Li	      2.07292      0.20706      2.21641        -0.063534     -0.019803      0.007091
Li	      3.90961      2.09058      2.21042        -0.004205      0.055736      0.008355
Li	      2.00040      4.13176      2.15225         0.065884      0.001707     -0.019676
Li	      2.11039      2.04622      4.06601         0.018699      0.003700      0.031586
Li	      4.24584      4.08103      4.20239        -0.019176     -0.055016      0.023148
Li	      4.09798      2.12583      6.20703        -0.011058     -0.044979      0.039396
Li	      6.10803      4.32435      6.15884        -0.029366      0.123691      0.058951
Li	      4.16338      4.25363      8.36953        -0.048710     -0.002351      0.009550
Ti	      6.23019      8.43045      6.45456         0.140058     -0.356226      0.150710
V	     10.22648      4.36223      6.42111        -0.036323     -0.103175     -0.475515
V	      6.16769      4.24336     10.44200        -0.077347      0.294761      0.133570
Cr	      4.08098      0.05857      4.11420         0.156019     -0.064524      0.028942
Cr	      4.04517      6.40524      6.36232         0.221724      0.014554      0.109014
Co	      8.21683      6.41747     10.39208        -0.118950      0.087292     -0.087356
Co	      6.25035      6.34498      8.33289        -0.187596      0.119807      0.152130
Ni	      6.13883      8.58222     10.38630         0.098798     -0.153978      0.054000
Ni	      6.18883      2.19709      8.39265         0.031356     -0.148026     -0.111619
O	      1.94982      2.14449      2.10484         0.162800      0.032767      0.024614
O	      4.08883      4.24815      1.88191         0.078367     -0.008131      0.514443
O	      4.17138      2.03163      4.18047        -0.150760     -0.009320     -0.005714
O	      6.26035      4.17465      4.21276        -0.027498      0.174970     -0.058621
O	      6.22388      1.89086      6.23030        -0.035128      0.188582      0.146276
O	      8.44403      4.22464      6.16692        -0.094423      0.001445      0.028481
O	      1.84788      4.32426      4.33104        -0.054474     -0.292490     -0.045521
O	      4.08395      6.53173      4.32392        -0.327631     -0.183548     -0.085427
O	      3.98592      4.39136      6.25052        -0.111652      0.037117      0.021380
O	      6.06223      6.49860      6.25202        -0.055456      0.158705     -0.195699
O	      6.16708      4.27255      8.52771         0.075247      0.372706     -0.165884
O	      8.27322      6.38177      8.40256        -0.421277     -0.040616     -0.086332
O	      1.94837      6.25325      6.28125         0.086872      0.000539     -0.039111
O	      4.15182      8.51145      6.26112        -0.050281     -0.047968      0.050167
O	      4.15773      6.39643      8.37656         0.406012     -0.066549     -0.085760
O	      6.18353      8.46735      8.31079         0.071823     -0.233697     -0.058808
O	      6.12425      6.34148     10.59167         0.169235     -0.084647      0.047954
O	      8.33642      8.59209     10.51212         0.134691      0.225752     -0.052675
