# total energy = -221.91728939 eV
 
CRYSTAL
PRIMVEC
0.025722 6.324032 6.191240 
6.237611 0.016526 6.201459 
4.161411 4.225807 0.007975 
PRIMCOORD
36 1
Li	      6.25335      6.34875     12.31102        -0.005555     -0.011429      0.064644
Li	      6.26539      8.37245     10.32361        -0.041552      0.015806     -0.003145
Li	      2.08021      4.26844      2.15850        -0.009243     -0.010972      0.008128
Li	      2.03881      2.27603      4.16032        -0.045995      0.055800      0.033160
Li	      4.15935      2.12830      6.19586         0.015676      0.031753     -0.021863
Li	      0.09481      4.22852      4.15386         0.067251     -0.077272      0.044183
Li	      2.15735      4.21502      6.15437         0.032812     -0.002940      0.020424
Li	      4.15446      6.31068      6.12749         0.035511     -0.006362     -0.036625
Li	      8.30476      8.39567      8.28655        -0.036413     -0.026771     -0.061794
Ti	      6.17931      4.31457      6.10315        -0.291288      0.255258      0.115560
V	      8.32693      8.42733     12.33983         0.221052     -0.051564      0.200490
V	      4.24685      8.47628      8.28010        -0.069635      0.070922     -0.166504
Cr	     10.36046      6.37068      8.28876         0.106567     -0.107011      0.142281
Cr	      6.32615      6.31074      8.27990        -0.065507      0.018103     -0.103603
Cu	      2.15334      6.29189      8.25969         0.005416     -0.102434     -0.008198
Cu	      4.25861      6.33607     10.33951        -0.180774      0.029426     -0.146519
Cu	      4.07945      4.26675      4.12887         0.226727     -0.104240      0.089069
Ni	      2.08248      6.23473      4.19634        -0.018849      0.049382     -0.031497
O	      2.04162      2.15943      1.94650        -0.085622      0.230585     -0.020421
O	      4.15275      4.25976      2.13567         0.070812      0.138578     -0.201929
O	      4.10537      2.26812      3.93998         0.028189     -0.078368      0.150756
O	      6.30689      4.19483      4.12718         0.058465      0.044346      0.213128
O	      6.30650      2.20751      6.27002        -0.130989      0.001306     -0.086204
O	      8.24506      4.12781      6.09949        -0.006094      0.130034      0.038476
O	      2.12244      4.25287      4.19307        -0.323934     -0.010626     -0.019192
O	      4.15081      6.27336      4.06600         0.094047      0.240360      0.000324
O	      4.28269      4.20864      6.09429         0.260652     -0.030904      0.153824
O	      6.27910      6.19774      6.25535         0.020896     -0.257083      0.041696
O	      6.22705      4.21589      8.12848        -0.034978      0.010675     -0.107846
O	      8.34290      6.35774      8.29412         0.010144     -0.020395     -0.012841
O	      2.11441      6.42063      6.31211        -0.062572     -0.017540     -0.160119
O	      4.06141      8.48147      6.41987         0.050888     -0.038122     -0.136938
O	      4.29059      6.46849      8.36224        -0.076506     -0.110124      0.084671
O	      6.16966      8.34034      8.22785         0.203867     -0.241828      0.056900
O	      6.24823      6.30127     10.26059        -0.016924     -0.014871      0.135277
O	      8.34950      8.29338     10.54540        -0.006539     -0.001478     -0.267751
