# total energy = -229.82676307 eV
 
CRYSTAL
PRIMVEC
0.003040 6.247885 6.266501 
6.322109 -0.013540 6.283215 
4.217907 4.179498 -0.012228 
PRIMCOORD
36 1
Li	      8.42315      2.07655      6.28309         0.001717      0.016570     -0.035469
Li	      4.36985      8.23151      8.32457         0.051582      0.015956     -0.018789
Li	      6.36082      8.32675     10.30793         0.032608     -0.025197     -0.005729
Li	      8.38666      4.16320      8.33356        -0.018519     -0.001499     -0.008956
Li	      6.28351      4.23661      6.33910        -0.040726      0.013636      0.093029
Li	      6.36427      8.27757      6.40545         0.043426     -0.006079     -0.026168
Li	      4.30220      6.20389      6.42528         0.027757     -0.025020      0.031166
Li	      8.32384      8.35907      8.28366         0.046200      0.020216     -0.018567
Li	      6.27973      6.39950      8.21419        -0.026640      0.003953     -0.018182
Ti	      4.22295     10.33229      6.29894        -0.037610     -0.297418      0.028242
V	      4.22427      6.18643     10.40665        -0.067105      0.033673     -0.014742
V	      6.29408      2.16634      8.27251        -0.057400      0.010763      0.122662
Cr	      6.34269     10.35077      8.29335         0.044348     -0.028904      0.029101
Cr	      0.02814      4.16734      4.16595        -0.016780     -0.058825      0.006187
Fe	      6.33125      6.26829      4.28519        -0.127704     -0.042633     -0.083638
Fe	      4.18975      4.12260      4.30704         0.044393      0.065954     -0.158354
Ni	      8.39789      6.28413      6.31025        -0.043455      0.015126      0.058711
Ni	      8.42069      6.29568     10.47146         0.055492      0.020839      0.004910
O	      1.88038      2.00340      2.16797         0.068062     -0.043089      0.006547
O	      4.25739      4.20287      2.01692        -0.006815     -0.036330     -0.078862
O	      4.12761      2.07566      4.18924         0.048397     -0.000383     -0.121188
O	      6.27681      4.21030      4.07483        -0.033671     -0.037527      0.012761
O	      6.29975      2.01228      6.36688         0.079157     -0.053473     -0.184585
O	      8.56848      4.22500      6.18542         0.134032     -0.145724      0.014895
O	      2.13334      4.13934      4.13013        -0.071873     -0.013662      0.045088
O	      4.21574      6.26654      4.11821         0.092360      0.038790      0.009461
O	      4.23774      4.14366      6.16740        -0.000223      0.122440      0.111432
O	      6.34235      6.23463      6.19364        -0.058121     -0.002690      0.094366
O	      6.36952      4.05389      8.44759         0.023558     -0.011660      0.023124
O	      8.64876      6.22205      8.41245         0.005608     -0.023536     -0.023441
O	      1.97138      6.28661      6.26790        -0.159808     -0.008143      0.139747
O	      4.19656      8.44825      6.19633         0.022383      0.296989     -0.033279
O	      4.10757      6.26928      8.45569        -0.000493      0.008439     -0.053106
O	      6.33044      8.40574      8.35535         0.024559      0.038662      0.004728
O	      6.35108      6.16714     10.53293        -0.087280      0.068611      0.059794
O	      8.56943      8.38547     10.46563         0.008583      0.071172     -0.012896
