# total energy = -224.11656429 eV
 
CRYSTAL
PRIMVEC
0.037504 6.430154 6.099652 
6.278500 0.003080 6.134546 
4.184730 4.309608 0.002703 
PRIMCOORD
36 1
Li	      6.32275     10.57320      8.20716         0.027991      0.083169     -0.055221
Li	      4.45194      8.65271      8.17770         0.015836      0.051512     -0.010580
Li	      6.28393      8.65834     10.04218        -0.024021      0.043422      0.116149
Li	      4.19688      4.30331      4.05127         0.042740     -0.010742      0.076843
Li	      6.21804      4.40498      6.13113        -0.005787      0.030853     -0.056441
Li	      0.08828      4.30056      4.02493        -0.016231      0.013464      0.103568
Li	      2.08879      6.28920      4.02005        -0.032547     -0.106046      0.078793
Li	      6.41796      8.48727      6.20818         0.015123     -0.004520     -0.107707
Li	      6.31762      6.59114      8.14962        -0.014290      0.032707      0.011372
Ti	      0.07258      6.35971      6.05469         0.201634     -0.194424     -0.136876
Ti	      8.38865      8.53427     12.20098         0.182044     -0.326416     -0.164757
Cr	      4.19934      2.20349      6.13502        -0.004413      0.064693     -0.235031
Fe	      4.15055      6.45538     10.02275         0.104671      0.014290      0.123636
Fe	      4.15239      6.49372      2.17892         0.105046     -0.311304     -0.060814
Fe	      2.13067      2.18763      4.09293        -0.003201     -0.114055     -0.091987
Co	      8.36979      8.59520      8.17432        -0.213017     -0.003939      0.296475
Cu	      8.30379      4.33386      8.23241        -0.043626      0.032755     -0.050074
Cu	      4.28217      6.32765      6.12272        -0.108719     -0.000739     -0.107797
O	      1.97946      2.08041      1.92705        -0.004714      0.038359      0.039964
O	      4.07450      4.43056      1.93808         0.106760      0.047909     -0.010665
O	      4.17426      2.07406      4.10963         0.041864      0.007566     -0.008534
O	      6.38568      4.43895      4.06358        -0.121805     -0.011117     -0.014974
O	      6.29965      2.04981      6.15854         0.002439      0.009248      0.010903
O	      8.42178      4.33178      6.17305        -0.007984      0.014554     -0.111632
O	      2.10892      4.17200      4.00636        -0.022315      0.072807      0.184444
O	      4.25945      6.39754      4.14888        -0.082000      0.046897     -0.105104
O	      4.23989      4.17049      6.25636         0.161101     -0.215208     -1.118472
O	      6.39152      6.46121      6.07323         0.160421      0.027442      0.142715
O	      6.24353      4.14146      8.18989         0.085705      0.185263      0.080161
O	      8.42438      6.63694      8.15264        -0.151565     -0.239973      0.056321
O	      2.01801      6.60270      6.02483        -0.290602      0.162054      0.038809
O	      4.05180      8.74752      6.17123        -0.086855      0.303556     -0.037318
O	      4.25004      6.25682      8.07425         0.026960      0.181989      0.064352
O	      6.44791      8.60986      8.13891        -0.197712     -0.010066      0.161361
O	      6.18062      6.42679     10.32651         0.077529      0.018612      0.082540
O	      8.36737      8.72323     10.26730         0.073543      0.065431      0.815580
