# total energy = -227.73501883 eV
 
CRYSTAL
PRIMVEC
0.003458 6.249601 6.265000 
6.275528 0.007336 6.261109 
4.204311 4.184430 -0.015707 
PRIMCOORD
36 1
Li	      6.31769      6.24508     12.42286         0.029991     -0.050591     -0.051943
Li	      4.26140      6.22876     10.42488         0.039996     -0.026913      0.027615
Li	      4.18689      6.30123      2.16497        -0.013506      0.019333      0.026639
Li	      6.20208      6.31093      4.16972        -0.057672      0.031748      0.007830
Li	      4.22059      2.07114      6.20362        -0.005644      0.002742     -0.036161
Li	      4.17181      8.21769      4.21082         0.011094     -0.115542      0.014477
Li	      8.41105      6.31860     10.42868         0.004031     -0.033724      0.026053
Li	      4.16952      6.28389      6.20423        -0.006968     -0.004078     -0.015625
Li	      8.38769      8.36226      8.43053         0.025831     -0.003103      0.041935
Ti	      8.39426      4.27367      8.36788         0.030781      0.085028      0.086297
Ti	      6.23314      4.22137      6.20600        -0.126838      0.148212      0.036508
Cr	      6.26557      6.24711      8.39656        -0.024392     -0.015380     -0.078575
Fe	      2.15712      8.24431      6.16263         0.048006      0.049973      0.199891
Fe	      4.16826      8.28584      8.35394         0.011129      0.106471     -0.082097
Fe	      4.15605      4.30746      4.18855        -0.115909     -0.159538      0.024830
Co	      2.07315      4.19284      6.21649        -0.004705      0.029419     -0.078196
Co	      2.12500      0.01720      2.12254         0.108694      0.012545     -0.219925
Cu	      6.31689      8.29670     10.44718         0.013139      0.049435      0.004254
O	      2.14304      2.14168      2.02363        -0.029014      0.095819     -0.005680
O	      4.08577      4.15644      2.09497        -0.029206      0.014167      0.001270
O	      4.30689      2.21968      4.07562        -0.051192     -0.038747      0.107784
O	      6.27126      4.18520      4.22578         0.040071      0.080722      0.123379
O	      6.35232      2.21460      6.20732        -0.057468     -0.004754      0.103902
O	      8.26876      4.12377      6.36341        -0.014731      0.053173      0.018792
O	      2.12359      4.13213      4.06797        -0.043550      0.022817     -0.009898
O	      4.19866      6.17138      4.14887        -0.006950      0.200553     -0.007059
O	      4.29116      4.14386      6.21843         0.118893     -0.001109      0.037642
O	      6.31223      6.17720      6.32009         0.022344     -0.040321      0.048372
O	      6.35013      4.22206      8.25595         0.039257     -0.019359     -0.026316
O	      8.30382      6.13234      8.32300         0.015579     -0.116235     -0.006167
O	      2.09088      6.25936      6.38154        -0.048314     -0.135977     -0.140523
O	      4.17881      8.36359      6.31767         0.006592     -0.016774      0.001233
O	      4.25011      6.31658      8.37975        -0.035065     -0.107531      0.040022
O	      6.26399      8.30026      8.35183         0.014494     -0.059260     -0.104212
O	      6.27784      6.33574     10.33717         0.008412     -0.120226      0.067464
O	      8.31668      8.32963     10.50997         0.082792      0.067006     -0.183815
