# total energy = -51.33609617 eV
 
CRYSTAL
PRIMVEC
-0.000132 2.119539 2.119325 
3.937163 -2.100389 2.099854 
3.937083 2.100075 -2.100186 
PRIMCOORD
8 1
Li	      3.93408      2.09655     -2.09559         0.001792      0.005249      0.002765
Li	      3.93503     -0.00440      0.00635         0.000095      0.003002      0.001667
Ti	      5.90254      2.10845      0.01507         0.009448     -0.007375      0.005124
Ni	      1.96626      2.10803      0.01571        -0.002253      0.001231     -0.003359
O	      3.87198      0.00851      2.11558        -0.258253     -0.002695     -0.002328
O	      3.99768      2.10764      0.01540         0.253241      0.003457     -0.002723
O	      1.96609     -0.05952      0.06365         0.000679     -0.125348      0.122878
O	      5.90362      0.05621     -0.05229        -0.004748      0.122480     -0.124024
