# total energy = -221.08133942 eV
 
CRYSTAL
PRIMVEC
0.030634 6.096801 6.439001 
6.310248 0.024253 6.444312 
4.211681 4.072964 0.011780 
PRIMCOORD
36 1
Li	      2.09009      2.02761      0.09867         0.010345     -0.017868      0.043874
Li	      4.15215      2.07544      2.13102        -0.015257      0.025371     -0.011211
Li	     10.41972      6.12257      8.49520        -0.027474     -0.011820     -0.048951
Li	      8.41597      4.19698      8.55257         0.016708     -0.077547     -0.012003
Li	      6.31925      6.07807      4.27423        -0.017165      0.037479     -0.048926
Li	      8.39491      6.16020      6.66019         0.006406     -0.000544     -0.042017
Li	      8.46764      6.15377     10.51124         0.027998      0.007711     -0.038390
Li	      6.35093      8.13026      6.51124        -0.037712      0.060858      0.002439
Li	      8.46554      8.04941      8.59665         0.024794      0.045130      0.038040
Ti	      8.40508      4.12984      4.40822         0.035764     -0.002108      0.082081
Ti	      0.15939      3.96528      4.24188         0.166761     -0.138910     -0.199581
Cr	      4.25084      6.13022      6.52440        -0.201395      0.091245     -0.038718
Fe	      2.09304      0.07228      2.09230        -0.083454     -0.229827      0.033931
Fe	      6.41373      8.13072     10.73292         0.018208     -0.053082     -0.081387
Fe	      4.04520      4.05376      4.25472         0.049269      0.039090     -0.079329
Cu	      4.22771      4.08061      0.12868        -0.015770     -0.005992     -0.000971
Cu	      6.27627      4.04415      6.51947         0.117957     -0.128252     -0.101551
Ni	      6.41406      6.14576      8.52718        -0.083627      0.051368      0.087782
O	      8.37259      6.13285      8.59336         0.134440      0.060200     -0.057859
O	      2.09191      1.86987      2.13899         0.031005      0.438431      0.061829
O	      4.24891      4.08342      2.29318        -0.089920     -0.002700      0.002911
O	      4.29048      2.02285      4.26322        -0.028161     -0.162938      0.065815
O	      6.41489      4.06174      4.13067         0.071786      0.057460      0.050183
O	      6.32403      2.00357      6.28937        -0.022919      0.264607      0.172009
O	      8.29258      4.09954      6.26914        -0.103058      0.017261     -0.095761
O	      2.08283      4.04622      4.31713        -0.260051     -0.027340      0.019718
O	      4.19703      6.13755      4.45903         0.031062      0.149413      0.000544
O	      4.30539      4.13444      6.26223         0.046972     -0.079160      0.109000
O	      6.22975      6.02830      6.51021         0.074018     -0.015120     -0.110552
O	      6.35410      4.06555      8.83189        -0.003883     -0.018187      0.320818
O	      2.23055      6.08076      6.63348         0.111488     -0.027189     -0.187268
O	      4.24873      8.19196      6.29156         0.019053     -0.264366     -0.071485
O	      4.26526      6.13679      8.56714         0.040685     -0.038925      0.095695
O	      6.37425      8.26411      8.70969         0.020044     -0.200708     -0.007869
O	      6.24155      6.10537     10.70361        -0.089616     -0.012312      0.034624
O	      8.48770      8.26934     10.73845         0.024699      0.169271      0.012536
