# total energy = -221.85862936 eV
 
CRYSTAL
PRIMVEC
0.008217 6.401955 6.287839 
6.253010 0.007310 6.288957 
4.172982 4.272998 0.000448 
PRIMCOORD
36 1
Li	      6.19026      0.06396      6.27163         0.010312      0.023560      0.085821
Li	      6.25053      2.11045      4.28022        -0.045123     -0.011722      0.021462
Li	      8.32996      4.34416      8.33610         0.036690      0.040406      0.008262
Li	      4.17780      4.26774      4.20274        -0.039915     -0.079625     -0.060161
Li	      4.28614      2.10621      6.28148         0.057071     -0.012847     -0.082485
Li	      6.23967      4.18595      6.34282        -0.064753     -0.053528      0.055255
Li	     10.39302      8.55468     10.45095         0.014481     -0.027648     -0.051892
Li	      4.16558      6.40058      6.28081        -0.017518      0.043073      0.045794
Li	      4.23756      4.23047      8.39933        -0.010140     -0.064668     -0.005053
Ti	      6.18353      6.38218      4.29055         0.094759      0.111236      0.244910
Ti	      2.20056      4.34385      6.22419         0.691750     -0.134449     -0.141943
Cr	      4.18770      8.56315      8.36832         0.079238     -0.147333      0.362917
Fe	      8.30174      2.26906      6.20982         0.293523     -0.024861      0.347610
Fe	      6.22003      4.25623      2.12907         0.035031     -0.064625     -0.046768
Fe	      6.30020      6.21648      8.43055        -0.279141      0.139393     -0.475018
Cu	      8.40242     10.66610     10.53465         0.033215      0.258522     -0.186800
Cu	      6.17648      2.21223      8.32802         0.099566      0.008168      0.041557
Cu	      8.33283      6.47070     10.44541         0.017960      0.031756      0.036275
O	      8.25434      6.40546      8.48956         0.211722      0.073625      0.197905
O	      2.16918      2.06987      2.12062        -0.166193     -0.100594     -0.093778
O	      4.28432      4.15463      2.12419        -0.026323      0.134827     -0.068520
O	      4.05332      2.07485      4.11155        -0.153438      0.004471      0.189617
O	      6.25787      4.40386      4.12301         0.039507      0.122541      0.143743
O	      6.33455      2.13831      6.40693        -0.065018     -0.050906     -0.113983
O	      8.35693      4.21392      6.21606         0.030123      0.135320      0.043477
O	      2.08488      4.08825      4.29497        -0.071461     -0.263165      0.282961
O	      4.24832      6.39633      4.05933         0.146207     -0.007596      0.052970
O	      4.02606      4.28357      6.29507        -0.772746      0.034466     -0.064209
O	      6.23490      6.49983      6.21827        -0.078966      0.124953     -0.262853
O	      6.25021      4.35551      8.35550        -0.020244     -0.127349      0.006329
O	      2.11906      6.33840      6.26556        -0.038037     -0.057248     -0.102479
O	      4.18885      8.51707      6.40279        -0.013024     -0.011855     -0.433083
O	      4.18390      6.50689      8.45102        -0.024566     -0.099933      0.006953
O	      6.19976      8.57601      8.27531         0.114514      0.114381     -0.214951
O	      6.32037      6.44111     10.38935        -0.151811      0.026899      0.377911
O	      8.33725      8.65615     10.56346         0.032747     -0.087647     -0.147755
