# total energy = -221.55523717 eV
 
CRYSTAL
PRIMVEC
-0.021267 6.328096 6.389394 
6.164469 0.020672 6.347130 
4.120216 4.201349 0.003158 
PRIMCOORD
36 1
Li	      6.16685      6.28412     12.60865        -0.002649     -0.012984     -0.014496
Li	      4.17843      8.35889      8.40350        -0.017272      0.018431     -0.023281
Li	      4.22265      6.28910     10.49396        -0.105117      0.049796     -0.017580
Li	      6.20059      8.29759     10.54161        -0.063110      0.033279     -0.059625
Li	      6.17573      4.25067      6.36123         0.003793      0.014571     -0.046454
Li	      6.07449      4.38096     10.64254         0.043879     -0.036382      0.021626
Li	      6.04438      8.41637      6.47608        -0.008760     -0.004006      0.054333
Li	      8.20783      8.51052      8.62504        -0.006886      0.012932      0.046201
Li	      6.04863      6.40348      8.61983         0.004739      0.049971     -0.018147
Ti	      8.06725      4.22411      8.43263        -0.246062      0.023213     -0.070677
Ti	      4.16785      2.23839      6.36052         0.031926      0.209427     -0.105123
Cr	      6.16519      6.33200      4.26910         0.060138     -0.066102      0.015424
Fe	      8.28269      8.45170     12.59927        -0.225103      0.073166      0.178114
Fe	      6.21308     10.36330      8.48174        -0.153658      0.186264      0.060142
Fe	      4.15359      4.22463      4.22556         0.065889     -0.089232      0.042170
Ni	     10.25709      6.32505      8.48320         0.008925      0.008123      0.008795
Ni	      8.12362      6.37122     10.64286         0.113090     -0.037805      0.005481
Ni	      4.14019      6.35106      6.43791         0.092113     -0.092771      0.024955
O	      6.19263      6.33986     10.58701        -0.122550     -0.034389      0.058255
O	      2.03671      2.18318      2.17594         0.107563      0.104573      0.003304
O	      4.12973      4.23973      2.21661        -0.129920     -0.069567     -0.033161
O	      4.05305      2.16908      4.39814         0.030601     -0.025757      0.150149
O	      6.12602      4.34733      4.13598         0.098078      0.044181      0.105911
O	      6.08180      2.14337      6.41247        -0.081630     -0.006156     -0.094941
O	      8.23236      4.22723      6.51052        -0.013735      0.067199      0.146547
O	      2.12666      4.19249      4.12245        -0.087212     -0.065274     -0.060803
O	      4.11745      6.24109      4.28621         0.037485      0.055814     -0.018397
O	      4.12743      4.13447      6.30412        -0.008776     -0.281688      0.002196
O	      6.24913      6.31553      6.26017         0.136823      0.024390     -0.028141
O	      6.24500      4.17973      8.50213         0.305274      0.119222     -0.000399
O	      8.21337      6.21060      8.40061        -0.151785     -0.075753     -0.081377
O	      2.05094      6.41350      6.44016        -0.109423     -0.055835     -0.074516
O	      4.02438      8.39297      6.38547         0.104883      0.084039     -0.035502
O	      4.00185      6.32006      8.46459         0.259367      0.045373      0.071330
O	      6.14371      8.52753      8.50983         0.008608     -0.334253     -0.007245
O	      8.18893      8.39815     10.70780         0.020475      0.063990     -0.205067
