# total energy = -227.71157143 eV
 
CRYSTAL
PRIMVEC
0.014082 6.320895 6.263132 
6.299827 0.010490 6.266984 
4.203808 4.220406 0.002999 
PRIMCOORD
36 1
Li	      6.29048      0.04198      6.28308         0.042337      0.040561      0.050738
Li	      8.35369      2.14074      6.31770        -0.037754     -0.039948      0.052796
Li	      4.25459      8.46221      8.31953        -0.015486      0.037980     -0.032786
Li	      6.36918      8.37393     10.41480         0.047917     -0.021047      0.024053
Li	      6.32218      2.18987      8.30174         0.033729     -0.030481     -0.001892
Li	      8.34129      4.19464      8.32149         0.010066     -0.009183     -0.018068
Li	      6.28161      4.27083     10.31117         0.035608     -0.005277     -0.111821
Li	      8.40577      8.39617      8.39435        -0.016824      0.004641      0.013025
Li	      6.36599      6.33369      8.40145         0.023475     -0.067987      0.029017
Ti	      4.23276      4.16305      4.05818         0.080160     -0.067283     -0.782458
Ti	      4.17216      6.47495      6.40641        -0.391582      0.523665      0.298284
Cr	      8.36179      6.39839     10.37248        -0.132923      0.068550      0.036615
Fe	      4.39874      6.14135     10.41104        -0.138713      0.107824     -0.100253
Fe	      2.08101      2.12206      4.06124        -0.043330      0.053462      0.025966
Fe	      8.48526      6.31358      6.43632        -0.072703     -0.090638     -0.113567
Fe	      6.33569      4.15213      6.46253         0.069782     -0.035055     -0.221335
Co	      6.31102     10.50928      8.33325        -0.102016      0.089758     -0.060444
Cu	      6.28794      8.46205      6.34972        -0.099736      0.160035      0.001415
O	      2.08966      2.05146      2.18711         0.000308     -0.468975     -0.053196
O	      4.20045      4.21320      2.21920         0.143924     -0.077112      0.510434
O	      4.11311      2.20135      4.25679         0.042869      0.084627      0.040110
O	      6.22905      4.28335      4.22823        -0.011973     -0.053975      0.068790
O	      6.20299      2.16969      6.27040         0.054674      0.006008     -0.040096
O	      8.36367      4.30252      6.13686        -0.020449     -0.004629      0.018755
O	      2.21834      4.24703      4.27165         0.102606     -0.010066     -0.150324
O	      4.17440      6.20980      4.27555        -0.026165     -0.063352      0.057128
O	      4.25495      4.20571      6.20402         0.023018     -0.000406      0.002950
O	      6.21398      6.22208      6.16203         0.019139     -0.210590      0.023682
O	      6.34034      4.22007      8.30515        -0.000409      0.014836      0.162118
O	      8.38430      6.32927      8.35529        -0.012332      0.008014      0.211102
O	      2.24047      6.39621      6.13482         0.264754      0.189377     -0.100538
O	      4.23245      8.29273      6.26119         0.008012     -0.390765      0.039767
O	      4.20486      6.34530      8.33088        -0.116848     -0.017502     -0.067472
O	      6.29710      8.55288      8.24323         0.002999      0.490806      0.255708
O	      6.31358      6.33264     10.43942         0.229197      0.048902     -0.044178
O	      8.40572      8.45821     10.42036         0.004669     -0.264776     -0.024026
