# total energy = -234.29508689 eV
 
CRYSTAL
PRIMVEC
0.016875 6.304070 6.329332 
6.383147 0.033359 6.312868 
4.269953 4.206413 0.007287 
PRIMCOORD
36 1
Li	      8.37166      2.21131      6.31104        -0.034245      0.022822      0.004130
Li	      6.40838      2.19393      4.33845         0.002283      0.059227      0.014766
Li	      6.39148      2.17196      8.35907         0.010105      0.006993     -0.005410
Li	      8.49234      4.25958      8.33717         0.006831      0.012930     -0.049719
Li	      6.35236      6.26679      4.26331        -0.009779     -0.012018      0.035149
Li	      8.61586      6.26941      6.36882         0.022391      0.013403      0.046556
Li	      6.49329      4.10104      6.27788         0.050545     -0.032087     -0.014885
Li	      2.17775      6.32883      4.21735         0.018667     -0.023548      0.008011
Li	      4.29799      6.32334      6.26448         0.024720     -0.033375     -0.017598
Ti	      4.08311      2.14599      2.11222        -0.572837      0.247837      0.078379
Ti	      2.21874      4.17886      6.21537         0.116086     -0.045747     -0.214871
Cr	      8.50648      4.25255      4.25999        -0.084525      0.018612      0.122755
Fe	      6.34081      0.19564      6.28748         0.038929     -0.094341      0.054111
Fe	      6.39665      4.22085      2.13973        -0.075848      0.076576     -0.011396
Fe	      4.32103      4.30704      4.25527        -0.000150     -0.027881     -0.030906
Fe	      4.25479      8.27219      4.22704         0.021120      0.010762      0.016050
Fe	      8.55307      8.35359      8.43679         0.075769      0.006516      0.008399
Fe	      6.48746      6.29367      8.39413         0.002592     -0.101165      0.107792
O	      2.25710      2.13295      2.05466         0.546726      0.083000      0.023791
O	      4.23856      4.07732      2.06511        -0.080180     -0.212919     -0.036730
O	      4.28050      2.12656      4.04439        -0.007920     -0.084242     -0.150751
O	      6.48424      4.22929      4.17127         0.135086      0.024478      0.136858
O	      6.40642      2.05778      6.33097        -0.033396      0.171259     -0.012887
O	      8.61493      4.24735      6.22610        -0.058485     -0.010676     -0.061743
O	      2.04727      4.19601      4.33789         0.027920     -0.031450      0.248344
O	      4.25990      6.34980      4.22664         0.001324     -0.021146      0.019367
O	      4.14930      4.26894      6.41990        -0.197736     -0.021665      0.010480
O	      6.40423      6.45989      6.42713        -0.006812      0.162714     -0.103789
O	      6.32587      4.28732      8.48473        -0.012313     -0.026055     -0.032128
O	      8.43811      6.40734      8.47875         0.041743     -0.061626     -0.018763
O	      2.04306      6.15733      6.40421         0.013838     -0.130548     -0.150110
O	      4.38955      8.41393      6.39814         0.029289     -0.006580      0.033468
O	      4.35870      6.38016      8.50282         0.047345     -0.015931      0.006218
O	      6.42043      8.34114      8.37629        -0.011807     -0.017644     -0.025573
O	      6.30820      6.22124     10.55066        -0.002270      0.044817     -0.066059
O	      8.60738      8.51900     10.46135        -0.045007      0.048700      0.028695
