# total energy = -223.18516454 eV
 
CRYSTAL
PRIMVEC
0.023364 6.229287 6.181661 
6.352202 0.024802 6.180469 
4.245273 4.162638 0.005893 
PRIMCOORD
36 1
Li	     10.46757      4.25686      6.12979         0.023423      0.080434      0.036264
Li	      8.41346      2.21569      6.12464        -0.072883     -0.060091      0.051001
Li	      8.43907      4.16076      4.26868        -0.043734     -0.020509      0.028373
Li	      6.39443      6.10864      4.15208         0.071941     -0.060968      0.061147
Li	      4.33599      4.19231      4.13319         0.082148     -0.036977      0.030519
Li	      4.30839      1.97175      6.09519         0.054587      0.017188     -0.070769
Li	      6.48216      4.14007      6.14791         0.025507     -0.029125      0.026711
Li	     10.51883      8.34604     10.29232        -0.076690     -0.063784      0.037501
Li	      4.29678      4.17558      8.28120         0.015251      0.045990     -0.017004
Ti	      4.17021      2.16573      2.17272        -0.239247      0.213813      0.035206
Ti	      2.19131      4.15425      6.02114         0.105454      0.019829     -0.161660
Mn	      4.25310      6.24584      6.10802        -0.018802      0.046953      0.007315
Cr	      6.39464      6.23617      8.27806        -0.026685      0.404467     -0.059319
Co	      6.44507      2.18159      4.31496         0.000073     -0.758571     -0.551308
Co	      6.34704      2.14123      8.19266        -0.176085      0.174555     -0.066253
Co	      8.45317      6.26903     10.32455         0.048345      0.084067     -0.005562
Cu	      8.43795      4.18632      8.17388        -0.034341      0.096127      0.061900
Ni	      6.36728      4.15783      2.09916         0.087466      0.011862     -0.151678
O	      2.22014      2.06958      2.09626         0.306965     -0.079358      0.094756
O	      4.25928      4.08010      2.04755        -0.075038     -0.129346      0.057752
O	      4.33834      2.06167      4.00351         0.136358      0.071709     -0.114824
O	      6.39594      4.07441      4.07191         0.115925     -0.362006      0.475764
O	      6.30939      2.11974      6.21813         0.009202      0.129769      0.172033
O	      8.48932      4.17509      6.26228         0.029868      0.004770     -0.045430
O	      2.11795      4.23359      4.15376        -0.062894      0.016113      0.172369
O	      4.06902      6.25206      4.11221        -0.036084      0.023958     -0.003759
O	      4.10832      4.31944      6.19607        -0.170061     -0.014072     -0.050608
O	      6.43015      6.38202      6.23126         0.000884      0.031251     -0.059445
O	      6.45420      4.26093      8.25109        -0.123497     -0.445677      0.054142
O	      8.42473      6.18882      8.40640         0.140693      0.093047      0.061443
O	      2.08114      6.13737      6.15073         0.006085     -0.120814     -0.171845
O	      4.36999      8.18425      6.23608         0.021838      0.051426     -0.019628
O	      4.32365      6.32302      8.16027         0.168535     -0.035512     -0.027028
O	      6.27240      8.30607      8.16781         0.036301     -0.210326     -0.063035
O	      6.50219      6.31802     10.25470        -0.030345      0.607949      0.230947
O	      8.40166      8.17707     10.29361        -0.300461      0.201858     -0.055987
