# total energy = -213.16581826 eV
 
CRYSTAL
PRIMVEC
-0.039705 6.087982 6.345728 
6.485205 0.031791 6.271278 
4.365287 4.052506 -0.019153 
PRIMCOORD
36 1
Li	      2.35618      8.09881      6.21400         0.014447      0.000826      0.029882
Li	      6.59349     10.03683      8.42077         0.056249      0.004965      0.054107
Li	      4.45774      8.08294      8.32289        -0.021662     -0.057017     -0.032464
Li	      8.58977     10.10459     10.39108        -0.028737      0.007805     -0.011201
Li	      6.63442      8.11596     10.39070        -0.016335      0.082922     -0.000486
Li	     10.61894      8.16102     10.64626        -0.056592     -0.086494      0.010244
Li	      6.34445      8.18973      6.47170         0.004023     -0.069217     -0.003587
Li	      4.23836      6.15139      6.46026        -0.046926      0.036971      0.022157
Li	      8.50527      8.17840      8.49077        -0.076769      0.008728      0.012386
Ti	      0.09958      2.08996      2.13006         0.125321      0.281186      0.026831
Ti	      4.21545      2.10842      6.22016        -0.151316      0.106911     -0.056204
Mn	      2.23989      4.07561      2.06231        -0.042389     -0.036504      0.014656
Cr	      4.37787      4.08437      4.19677         0.197793     -0.004666      0.024000
Cu	      6.48040      4.02605      6.24431         0.087066     -0.032210      0.184028
Cu	      8.55525      6.13563     10.57100         0.123370     -0.159197     -0.081754
Cu	      6.21919      6.18269      8.52642        -0.007125     -0.254992     -0.121633
Ni	      0.01824      6.05327      6.26374         0.360686     -0.747516     -0.082717
Ni	      6.49751      6.11072      4.22287         0.032359      0.061914     -0.008101
O	      4.30946      6.09021      8.42336        -0.160422     -0.101886      0.059354
O	      6.47867      8.02358      8.43165         0.002444      0.207157     -0.056131
O	      8.61491      7.94694     10.52022         0.022477      0.384564     -0.010001
O	      2.03969      2.16434      2.14925        -0.132422     -0.183760     -0.180645
O	      4.44761      4.17017      2.17426         0.086224      0.061752     -0.179246
O	      4.21728      2.08095      4.32005         0.149475     -0.009751      0.146971
O	      6.38827      4.08577      4.30871        -0.156979     -0.139939     -0.211092
O	      6.34745      2.01687      6.40039        -0.103791      0.257828     -0.089025
O	      8.92235      4.13230      6.35677        -0.403409      0.257220      0.004240
O	      2.33485      4.15695      4.03627         0.007090      0.036388      0.104536
O	      4.41663      6.09690      4.07403        -0.017555     -0.042584     -0.067829
O	      4.21559      3.98587      6.20475        -0.125609     -0.143887     -0.022544
O	      6.66218      5.97961      6.31585         0.090364      0.312992      0.079365
O	      6.50072      4.04655      8.24596        -0.004731     -0.081735      0.188892
O	      8.84341      6.02852      8.28445         0.041747      0.215622      0.005200
O	      1.93582      6.10585      6.23954         0.473736      0.277784      0.069952
O	      4.35668      8.23937      6.31593        -0.213687     -0.386191      0.011380
O	      6.46418      6.07478     10.45104        -0.108411     -0.065991      0.166479
