# total energy = -103.13685286 eV
 
CRYSTAL
PRIMVEC
0.000157 2.096912 2.095297 
6.242680 4.255808 -6.347406 
-4.181569 2.133692 -2.132360 
PRIMCOORD
16 1
Li	      0.13615      0.17321     -0.17255         0.014135      0.007884     -0.007122
Li	     -2.23710      4.08492     -1.98908        -0.027687      0.000388      0.003354
Li	     -0.06719      4.18917     -4.18574        -0.003219     -0.008456      0.006307
Li	      2.08280      6.35616     -4.25714        -0.002458      0.009375     -0.006237
Ti	      1.97293      4.22077     -2.12287        -0.300378     -0.067567      0.068893
Ti	      4.36625      4.27306     -4.26979         0.521767      0.013652     -0.018624
Ni	     -2.11123      2.18288     -0.08600        -0.116847     -0.080241      0.076683
Ni	     -0.08887      2.07206     -2.07133         0.060813      0.068079     -0.067477
O	     -0.05784      6.48801     -4.38741        -0.014810      0.055847     -0.062887
O	      0.12619      4.25511     -2.15558         0.353887      0.055612     -0.062938
O	      2.14186      4.14651     -4.14373         0.019352     -0.052566      0.055348
O	     -0.06896      2.16103     -0.06424         0.106413     -0.122351      0.122518
O	      2.13963      2.26495     -2.26082         0.042069      0.137465     -0.140620
O	      1.98272      6.31692     -6.31439        -0.556108      0.005109      0.001901
O	     -2.10935      2.08975     -2.08960        -0.108557      0.124469     -0.121017
O	      4.12722      6.24803     -4.15024         0.011628     -0.146701      0.151915
