# total energy = -239.48647053 eV
 
CRYSTAL
PRIMVEC
0.031703 6.323064 6.320113 
6.352129 0.001626 6.350249 
4.225552 4.226389 0.010301 
PRIMCOORD
36 1
Li	     10.45237      4.30676      6.33869        -0.044179      0.010953     -0.024678
Li	      8.35785      2.24252      6.37194        -0.045745      0.028726     -0.006221
Li	      4.20385      2.13570      2.07811        -0.025125      0.014831     -0.067713
Li	      6.37543      2.09860      4.33145         0.030703     -0.014518      0.071909
Li	      8.40953      4.23614      8.31235        -0.002525      0.017758     -0.068137
Li	      2.11424      2.09390      4.18375         0.008771     -0.015789     -0.031213
Li	      6.44617      4.13869      6.44706        -0.016755     -0.015436      0.080337
Li	      8.51322      8.39943      8.48717         0.014317     -0.003518      0.010240
Li	      6.43464      6.28637      8.44738         0.038851     -0.023400      0.017011
Ti	      2.22058      6.35154      8.42299         0.128367      0.038781     -0.055975
Ti	      4.24316      4.06654      4.21651         0.000101     -0.285818     -0.054640
Mn	      8.37963      6.41994     10.50508        -0.082235      0.062972      0.057988
V	      6.37800      8.37823      6.38866        -0.010754      0.005110      0.048884
V	      4.33388      6.34630      6.35623         0.062705      0.020116      0.056806
Cr	      6.36105      2.11671      8.39802         0.029829      0.049399     -0.024502
Fe	      8.47293      4.21970      4.34775        -0.093488      0.116656     -0.191514
Fe	      6.32091      4.25307     10.49521         0.054516     -0.006870      0.102151
Ni	      8.51500      6.29409      6.42048        -0.097981      0.010211     -0.039343
O	      2.04475      1.95025      2.06633        -0.010904     -0.153210      0.034335
O	      4.30171      4.26539      2.26992         0.033027     -0.003607      0.123217
O	      4.22104      2.18718      4.26207         0.005492      0.316548     -0.078964
O	      6.27905      4.20129      4.12172        -0.069147      0.016455     -0.092141
O	      6.32016      2.09275      6.44275         0.102930     -0.000731      0.016117
O	      8.42232      4.27711      6.23985        -0.015640     -0.079378      0.163657
O	      2.24305      4.21144      4.32046         0.082003     -0.059359     -0.043105
O	      4.26275      6.29943      4.22773         0.072230     -0.063382     -0.054001
O	      4.26650      4.29295      6.21522         0.035434     -0.016534     -0.075905
O	      6.32203      6.40238      6.39692         0.022406      0.015150     -0.032497
O	      6.42391      4.11287      8.57391        -0.021491     -0.038845     -0.112353
O	      8.57537      6.34719      8.42608        -0.000542     -0.015240      0.128298
O	      2.25708      6.22245      6.40575        -0.023947      0.022918      0.067725
O	      4.30832      8.33302      6.21032        -0.005543      0.016796      0.041066
O	      4.14161      6.38770      8.49354        -0.175794     -0.030397     -0.006374
O	      6.33877      8.60523      8.34290         0.015800      0.106211      0.033019
O	      6.26829      6.26117     10.52365         0.080961      0.053667      0.022693
O	      8.54552      8.55731     10.57965        -0.076649     -0.097226     -0.016179
