# total energy = -95.38639328 eV
 
CRYSTAL
PRIMVEC
0.000525 2.041903 2.041954 
18.979177 -0.000870 -0.000818 
0.000114 2.041893 -2.041944 
PRIMCOORD
16 1
Li	      0.53352      2.03991      2.03990        -0.064675      0.000241     -0.000071
Li	      2.79884      2.04236      0.00004        -0.006598      0.001247     -0.000114
Li	      4.56690      0.00122      0.00008        -0.010973     -0.000110     -0.000245
Li	      6.68528      2.04513      0.00017        -0.011958      0.000422     -0.000311
Ti	     14.13576      2.04191      2.04035         0.037086      0.000713      0.000688
Ti	     16.85278      2.04104     -0.00123         1.022817      0.000824     -0.001223
Ni	      9.17106      0.00255     -0.00047         0.087736     -0.002551     -0.000276
Ni	     11.61233      2.04310     -0.00098         0.111954     -0.000729     -0.000195
O	     14.30489      2.04189     -0.00165        -0.032347     -0.000341      0.001747
O	     16.38462      2.04121      2.04069        -0.024478     -0.000201      0.000116
O	      9.68031      2.04421     -0.00055        -0.053561      0.001937     -0.000482
O	     12.12289      0.00089     -0.00105         0.130755      0.000007     -0.000301
O	      4.75069      2.04313      0.00007        -0.015379     -0.000902     -0.000312
O	      7.28112      0.00309     -0.00003        -0.244474     -0.001453      0.000178
O	     18.59173      2.04067     -0.00142        -0.969908      0.001332      0.001052
O	      2.35526      0.00080      0.00016         0.044004     -0.000437     -0.000252
