# total energy = -238.04145433 eV
 
CRYSTAL
PRIMVEC
-0.029188 6.177516 6.245238 
6.486873 -0.026719 6.242199 
4.333044 4.124544 -0.025836 
PRIMCOORD
36 1
Li	      8.52234      2.06479      6.22615        -0.042762     -0.001654      0.014872
Li	      8.62526      4.18161      4.18579        -0.066365     -0.089399     -0.053673
Li	      6.32694      2.02721      4.22938        -0.019161      0.009371     -0.024955
Li	      6.42514      2.05680      8.22336        -0.053040      0.000098      0.038886
Li	      2.33990      2.04541      4.17624         0.045699      0.003307      0.022349
Li	      4.31913      4.00345      4.18747         0.000863      0.037595     -0.021796
Li	      4.47492      2.05032      6.09544         0.057664      0.060969      0.030217
Li	      6.44503      4.10202     10.35289        -0.003250     -0.015581     -0.044012
Li	      4.38711      4.05755      8.29166         0.034779     -0.002314      0.007362
Ti	      6.44032      4.13144      2.28589         0.019983     -0.095850      0.332222
Ti	      4.35724      6.14281      6.13779        -0.008531     -0.025707     -0.250639
Mn	      6.43724      0.03549      6.16496         0.022824     -0.027913     -0.058656
Mn	      2.23109      4.03252      6.18006        -0.004832     -0.053081     -0.051931
V	      8.52938      4.11559      8.32319         0.150265      0.026366      0.065821
V	      8.64063      6.35291     10.35100         0.055170     -0.047639     -0.065183
Cr	      4.29296      2.04516      2.15747         0.043127     -0.025251     -0.017062
Cu	      6.45156      6.15145      8.39202        -0.005366      0.106934     -0.093934
Ni	      6.46988      4.01326      6.20368         0.034731      0.091059     -0.080022
O	      2.22978      2.04527      2.12560        -0.021451     -0.084446     -0.030497
O	      4.42689      4.07889      2.04751         0.026912     -0.016810      0.016005
O	      4.30993      2.01550      4.09253         0.005455     -0.019895      0.061100
O	      6.48115      4.12997      4.08417         0.016138      0.000073     -0.301963
O	      6.49527      2.03782      6.20866         0.023399     -0.113271      0.041502
O	      8.62820      4.08915      6.44874         0.073175     -0.027444     -0.082075
O	      2.21288      4.20201      3.97191        -0.036935     -0.037336      0.069955
O	      4.17655      6.20205      4.27453         0.032732     -0.038272      0.251618
O	      4.34748      4.20730      6.27718        -0.006740      0.095720     -0.012815
O	      6.29186      6.09078      6.28301        -0.157775      0.022839     -0.047232
O	      6.63681      4.11868      8.30070        -0.108863     -0.056799      0.081537
O	      8.72686      6.07232      8.40426         0.133990      0.060618     -0.101713
O	      2.23723      6.18394      6.14165        -0.005304      0.024118      0.061973
O	      4.33027      8.16000      6.30919         0.010755     -0.022999      0.009004
O	      4.03117      6.20909      8.24262        -0.225921     -0.043561     -0.001897
O	      6.31788      8.34764      8.31667        -0.025983      0.090837      0.077174
O	      6.66413      6.13627     10.36238        -0.005450      0.005925      0.099029
O	      8.68827      8.09557     10.30853         0.010068      0.209393      0.059427
