# total energy = -235.13566492 eV
 
CRYSTAL
PRIMVEC
0.011423 6.254630 6.206126 
6.397062 0.018963 6.198005 
4.283265 4.182916 -0.005721 
PRIMCOORD
36 1
Li	      8.51462      8.39876     12.32562         0.017556     -0.031079      0.037013
Li	      6.38961      4.17196      2.12429        -0.063541      0.023321     -0.036246
Li	      4.27875      2.08307      2.11569        -0.028539      0.056764     -0.040529
Li	      6.56203      8.47053     10.32620         0.091872     -0.022241     -0.019157
Li	     10.59141      6.29221      8.23911        -0.051887     -0.010128     -0.008246
Li	      4.28956      2.07238      6.16316        -0.036164     -0.004444      0.034557
Li	      6.39233      4.06367      6.17313        -0.024758     -0.010797      0.045612
Li	      8.55886      6.44650     10.27780         0.013567      0.026915     -0.026841
Li	      8.59730      8.33941      8.33605         0.049708     -0.040146     -0.026352
Ti	      2.26032      4.26317      6.28850         0.077304      0.132208      0.008239
Ti	      6.48843      6.25914      8.28781         0.327008     -0.220180     -0.082854
V	      6.33183      0.15869      6.24401         0.226800     -0.139105      0.287581
V	      2.14435      2.00677      4.00168        -0.014506      0.173952     -0.136337
Cr	     10.66474      8.36346     10.32225         0.119590      0.000801      0.027793
Fe	      4.19813      6.27073      6.29857        -0.010007      0.139101     -0.097865
Co	      8.53454      4.18948      8.22573        -0.280700      0.167482     -0.089311
Co	      4.28889      6.24215     10.30592        -0.163114      0.019067     -0.019760
Ni	      4.28187      4.13213      4.07895        -0.089082     -0.055012     -0.069309
O	      2.08896      2.09403      2.21453         0.028756      0.225076      0.035632
O	      4.17535      4.17878      1.99202        -0.412475      0.009688     -0.227591
O	      4.06454      2.05348      4.13348        -0.133848      0.256055      0.009934
O	      6.29726      4.28971      4.14528         0.271756     -0.097591      0.066275
O	      6.43895      1.93041      6.15643        -0.000546      0.125815     -0.067010
O	      8.70846      4.16050      6.09713        -0.020409      0.077846      0.654675
O	      2.10754      4.06262      4.25795        -0.150222     -0.013530      0.025686
O	      4.35574      6.30886      4.20635        -0.001035      0.077635     -0.042556
O	      4.14325      4.15234      6.14062        -0.294387     -0.039813      0.126237
O	      6.37850      6.36599      6.25243         0.106403      0.083726     -0.020726
O	      6.43490      4.25676      8.29637         0.531315      0.095194      0.013902
O	      8.38676      6.25009      8.23549        -0.068445     -0.346738      0.046415
O	      2.04391      6.17465      6.27686        -0.005642     -0.235193     -0.040789
O	      4.41113      8.49103      6.13385         0.055882      0.025394     -0.089219
O	      4.43461      6.27507      8.28048         0.149239      0.107559     -0.162801
O	      6.44482      8.25633      8.19537        -0.009988     -0.019467     -0.112503
O	      6.50920      6.22678     10.29935        -0.172528     -0.055097     -0.030795
O	      8.70961      8.43098     10.31980        -0.034936     -0.483039      0.027246
