# total energy = -230.44733211 eV
 
CRYSTAL
PRIMVEC
0.015090 6.207263 6.372061 
6.350293 0.007653 6.379482 
4.238127 4.147375 0.000509 
PRIMCOORD
36 1
Li	      0.10291      6.15064      6.39919        -0.037545      0.050859     -0.054948
Li	      4.22599      8.32166      8.42879         0.039819     -0.055956     -0.030728
Li	      6.40381      8.28471     10.66009         0.006141     -0.012355      0.047680
Li	      8.47004      6.25527      6.41305        -0.036633      0.044667      0.042913
Li	      4.30036      8.22281      4.30509         0.026362     -0.012534     -0.029049
Li	      8.45602      6.23402     10.61880        -0.045939      0.040256     -0.027641
Li	      2.03314      4.24078      6.30322        -0.013428     -0.082408     -0.072050
Li	      4.24535      6.18062      6.34451         0.042782     -0.013852     -0.054408
Li	      8.47800      8.23373      8.49854         0.011052     -0.033379     -0.004834
Ti	      2.33061      8.14568      6.36678         0.329206     -0.108380      0.074106
Ti	      4.31687      6.24250     10.57300         0.207620     -0.065262     -0.152328
V	      6.28578      4.14507      6.40654        -0.116900      0.004826      0.053240
V	      6.36052      6.37355      8.54397         0.063497     -0.215150     -0.082725
Cr	      8.48063      4.19329      8.48703        -0.050063      0.002124      0.065399
Fe	      4.19547      4.13386      4.24280         0.065237     -0.039529      0.089816
Cu	      2.14646      6.06302      8.33573         0.065521     -0.081015     -0.122740
Cu	      4.23800      6.22094      2.17053        -0.080166      0.068793     -0.023929
Cu	      2.10657      2.08452      4.23437        -0.019362      0.015002      0.108424
O	      2.21184      2.20228      1.92784         0.202856     -0.038946     -0.327840
O	      4.15268      4.19557      2.19115         0.123035     -0.114427      0.009397
O	      4.14518      2.02066      4.27947         0.117111     -0.129332     -0.025657
O	      6.36797      4.18415      4.41725         0.000250     -0.118080     -0.013897
O	      6.40673      2.26373      6.51683         0.078538      0.032395     -0.169834
O	      8.40422      4.14078      6.37712        -0.005355     -0.035123      0.013482
O	      2.19028      4.06643      4.13680        -0.033260      0.115212     -0.060942
O	      4.35891      6.13258      4.13161        -0.043922      0.073801      0.133079
O	      4.34810      4.13674      6.25933        -0.016164     -0.023560      0.014010
O	      6.33691      6.03883      6.58447        -0.013737     -0.043657      0.147960
O	      6.41243      4.21079      8.46862         0.080523      0.092147     -0.055083
O	      8.30820      6.18608      8.57625        -0.172585     -0.020872      0.006687
O	      2.10346      6.29982      6.25756         0.054170      0.189957      0.110020
O	      4.17288      8.25000      6.32931        -0.438635      0.013713      0.004426
O	      4.32808      6.15859      8.67169        -0.106208      0.027954      0.262947
O	      6.37176      8.13346      8.46670        -0.057398      0.368157      0.047304
O	      6.22415      6.25588     10.56856        -0.302372     -0.000230     -0.033625
O	      8.41877      8.45863     10.78075         0.075954      0.104182      0.111370
