# total energy = -244.52477074 eV
 
CRYSTAL
PRIMVEC
0.005013 6.306507 6.249784 
6.277802 0.020711 6.234555 
4.218729 4.228104 -0.020031 
PRIMCOORD
36 1
Li	      4.21250      4.21751      0.00562        -0.027254     -0.028572      0.062425
Li	      6.22507      4.35109      2.11331        -0.075035      0.027073     -0.009850
Li	      8.41754     10.52296     10.38851         0.018538     -0.045840      0.030182
Li	      0.13512      2.16253      2.10486         0.040060      0.051455     -0.015425
Li	      2.05902      4.08831      2.15673         0.009916     -0.081444      0.010511
Li	      2.05179      2.08796      4.04130        -0.032174      0.011974      0.031984
Li	      6.32378      4.21405      6.28261        -0.000969     -0.055990      0.032789
Li	      6.32163      4.30045     10.27057         0.035012      0.057690      0.047173
Li	      8.35028      6.29269     10.33534         0.030113     -0.029043     -0.072871
Ti	      6.44160      8.41216     10.48722         0.458657     -0.040886      0.431975
Ti	      8.40467      6.14070      6.25440         0.046772     -0.588081      0.313459
Ti	      4.07747      6.42729      6.15759        -0.399960      0.188423     -0.351817
V	      2.08891      4.21976      6.18375        -0.068950      0.097223     -0.079797
Cr	      4.12620      2.13920      2.11264        -0.131622      0.030666     -0.103765
Cr	      4.22604      4.23708      4.11322        -0.073159      0.120700     -0.033756
Cr	      4.26401      4.24193      8.32769         0.144866     -0.050041     -0.022195
Co	      8.28235      2.15537      6.18459        -0.082108     -0.027975     -0.007449
Ni	      6.32487      6.26918      8.36280         0.085847     -0.012487     -0.042105
O	      2.19536      2.09038      2.06246         0.049759     -0.025442      0.006754
O	      4.19240      4.09931      2.16867         0.001398     -0.048078     -0.007402
O	      4.23777      2.18703      4.18576         0.107089     -0.045202      0.019316
O	      6.22822      4.06207      4.15325         0.002217     -0.186555      0.001959
O	      6.14324      2.10232      6.19149        -0.251050     -0.025745     -0.324098
O	      8.34526      4.35291      6.20492         0.050882      0.494803      0.016835
O	      2.20152      4.24056      4.26662         0.023930     -0.035341     -0.040400
O	      4.24923      6.25629      4.28441        -0.051874     -0.008619      0.362302
O	      4.18096      4.29404      6.24819         0.024000      0.072155     -0.024079
O	      6.35057      6.41377      6.23055         0.012564      0.053758     -0.113626
O	      6.19866      4.25643      8.33205        -0.008700     -0.092095     -0.063751
O	      8.39433      6.45609      8.16085         0.106771      0.030786     -0.167650
O	      2.18541      6.23596      6.25705         0.359629      0.022916     -0.027769
O	      4.23857      8.36803      6.31382         0.107083     -0.251550      0.005879
O	      4.25355      6.31567      8.18984        -0.108884      0.035064     -0.047713
O	      6.32336      8.39107      8.30066        -0.029103      0.122943      0.098134
O	      6.29392      6.49870     10.38713         0.012397      0.275177      0.105583
O	      8.36822      8.47440     10.29730        -0.386658     -0.013819     -0.021742
