# total energy = -233.86519310 eV
 
CRYSTAL
PRIMVEC
0.011147 6.328038 6.154988 
6.386425 -0.008746 6.175609 
4.255688 4.229870 -0.003985 
PRIMCOORD
36 1
Li	      6.39540      6.33980     12.14201         0.063622     -0.040490      0.115295
Li	      8.51613      8.43303     12.17909        -0.021777      0.023812     -0.048599
Li	      4.45288      6.30403     10.32739        -0.009212     -0.012866      0.020231
Li	      6.39559      8.26628     10.40718         0.017919      0.004343     -0.026503
Li	      8.47217      4.31303      8.33353        -0.111064      0.113790      0.041589
Li	      6.30264      6.40356      4.13679        -0.030882      0.044239     -0.033698
Li	      4.31742      2.07463      6.09265        -0.014386     -0.022372     -0.045149
Li	      0.04375      4.31005      4.18161         0.027711     -0.008114     -0.020641
Li	      2.06141      6.30316      4.14338        -0.007653     -0.022341     -0.014938
Ti	      6.35444      4.26604      2.10386        -0.133392      0.003559      0.012817
Ti	      4.17434      2.10697      2.10919        -0.109244      0.075090      0.314344
Ti	      8.56289      8.28835      8.34594         0.176528     -0.270762      0.744995
V	      6.52161      4.17821      6.08721         0.162940      0.136763      0.116643
V	      2.14608      4.17006      6.07202         0.051742     -0.065308     -0.106978
Co	      6.39778      6.30455      8.35306         0.052211      0.090578     -0.229599
Co	      4.25376      6.32909      2.07432        -0.075928      0.067894      0.042578
Ni	      4.21877      4.24975      4.11252         0.024447     -0.073419      0.004485
Ni	      4.25512      6.36325      6.05200        -0.005273      0.051517     -0.015936
O	      2.24976      1.99659      2.02498         0.107280     -0.238631     -0.022410
O	      4.36186      4.12218      2.01070         0.182169     -0.147055     -0.089837
O	      4.28633      2.15024      3.95548        -0.010361     -0.105981     -0.404465
O	      6.33004      4.21530      4.06951         0.095154      0.005205     -0.136736
O	      6.38275      2.27144      6.21499         0.026353      0.010498      0.068112
O	      8.27573      4.27396      6.17248        -0.082730      0.020509     -0.044920
O	      2.18548      4.20331      4.17193        -0.143264     -0.022057     -0.083292
O	      4.27670      6.26773      4.04080         0.010727      0.106328     -0.172486
O	      4.33366      4.28534      6.20409         0.054078     -0.130031      0.196541
O	      6.34043      6.34654      6.23530         0.102591     -0.199050      0.313474
O	      6.26574      4.22552      8.11464        -0.225490      0.181158     -0.030580
O	      8.51070      6.43280      8.19623        -0.122045      0.276604      0.038366
O	      2.16957      6.21668      6.30715        -0.054003      0.079193      0.160572
O	      4.33722      8.39741      6.26778        -0.076988      0.130841      0.163017
O	      4.13498      6.37511      8.22801         0.035212      0.011402      0.107552
O	      6.43646      8.53574      8.16443        -0.002444      0.016911      0.154227
O	      6.38722      6.32388     10.25894         0.046949     -0.033180     -0.413290
O	      8.53517      8.45442     10.14482        -0.001495     -0.058576     -0.674781
