# total energy = -230.10525472 eV
 
CRYSTAL
PRIMVEC
0.005239 6.089325 6.365418 
6.322150 -0.011310 6.382453 
4.221004 4.077332 -0.014044 
PRIMCOORD
36 1
Li	      4.18247      2.07795      2.18463        -0.033821      0.044676      0.042474
Li	      2.11773      4.00571      2.17302         0.031972     -0.019692      0.025346
Li	      2.12349      2.12784      4.24192        -0.026812      0.028783     -0.045301
Li	      4.20933      3.98030      4.41804         0.002735      0.020824      0.017319
Li	      4.20821      2.20145      6.29242        -0.003857     -0.098609     -0.052233
Li	      6.13418      4.07045      6.37137         0.021619      0.025799      0.001654
Li	      6.34934      4.03842     10.59114         0.013046     -0.032936     -0.030423
Li	      2.30075      4.01168      6.35496         0.018871     -0.016673     -0.021140
Li	      4.19976      4.05563      8.32603        -0.012254     -0.018918     -0.046850
Ti	      8.31367      4.13111      4.25943        -0.361835      0.256706      0.001671
Ti	      2.20188      5.98100      4.22487         0.304575     -0.455920     -0.093708
Ti	      6.32966      6.08308      8.34432         0.006667      0.029538     -0.581302
V	      4.21289     10.06380      6.37091         0.015048     -0.045233      0.104388
V	      6.33995      2.09043      8.49032         0.019550      0.018285      0.042832
Ni	      8.41864      2.05177      6.40139         0.008388      0.012183      0.085082
Ni	      6.32783     10.11491      8.46236         0.017184     -0.035012      0.009485
Ni	      6.31240      2.03866      4.25327        -0.072756      0.047850      0.023938
Ni	      4.24511      6.03107      6.34298         0.044721      0.233522      0.012293
O	      1.99257      1.99795      2.06831         0.010393      0.110718      0.099491
O	      4.23291      4.14733      1.96170        -0.138053     -0.101374     -0.057949
O	      4.24193      1.91623      4.24127        -0.093371     -0.259006      0.003314
O	      6.44489      4.06980      4.17673         0.297745      0.148092      0.123382
O	      6.35412      1.87705      6.38312        -0.112483     -0.012920      0.039291
O	      8.56408      4.07917      6.22117         0.010284      0.144369     -0.143735
O	      2.10247      4.17224      4.25568         0.053000      0.429760     -0.014045
O	      4.10088      6.14161      4.22740        -0.214878     -0.030605     -0.125749
O	      4.23133      4.09412      6.35681        -0.007601     -0.137203      0.024984
O	      6.29633      6.11267      6.50871         0.130102      0.000517      0.542306
O	      6.35716      4.10424      8.48915        -0.017119      0.124975      0.017942
O	      8.39846      6.09882      8.64069        -0.073274     -0.028813      0.139401
O	      2.07281      6.08966      6.32018        -0.146423     -0.101562     -0.114147
O	      4.20060      8.24104      6.38118         0.054188      0.025686     -0.005442
O	      4.32998      6.06162      8.59513         0.112721      0.031240      0.158484
O	      6.33376      8.02159      8.55992         0.013424     -0.203745     -0.087094
O	      6.35690      6.07287     10.67307         0.018501     -0.126143     -0.026528
O	      8.39590      8.13767     10.70091         0.109801     -0.009160     -0.069433
