# total energy = -186.56725088 eV
 
CRYSTAL
PRIMVEC
0.004629 6.162310 6.292991 
6.219716 -0.003341 6.301052 
4.145978 4.113085 -0.001804 
PRIMCOORD
36 1
Li	      6.21086      6.18837     12.50949        -0.001396     -0.033539     -0.136232
Li	      4.13882      2.00374      2.17584         0.101030     -0.095048      0.020890
Li	      4.22185      6.10618     10.37915         0.098408     -0.025153     -0.139012
Li	      6.22776      8.16241     10.42481         0.020714     -0.135770     -0.045792
Li	      4.13436      6.16141      2.10706        -0.071242      0.061339      0.016872
Li	      8.23122      6.23024     10.42283        -0.119373      0.081724     -0.094827
Li	      4.10618      6.20805      6.34204         0.047216      0.024190      0.087756
Li	      8.28519      8.28152      8.47951         0.019167      0.010027      0.062677
Li	      6.22435      6.13328      8.53399        -0.020805      0.015057      0.047351
Sc	      6.18494      8.25832      6.36131        -0.159859     -0.092249      0.298516
Cu	      2.12624      6.15728      8.38686        -0.147625     -0.038947     -0.120615
Cu	      2.08963      2.04536      4.14497         0.075915      0.070061      0.239437
Cu	      4.17959      4.12915      4.14873        -0.115355      0.113409      0.326471
Cu	      4.20526      2.02259      6.29920         0.090066     -0.125385      0.084889
Cu	      6.19794      4.11025      6.35574        -0.072709      0.074055      0.090324
Cu	      8.27576      8.19078     12.58122         0.007503      0.079746     -0.034547
Cu	      2.09681      4.14588      2.11864        -0.025235     -0.102481     -0.094973
Cu	     10.29616      8.22945     10.47893         0.059678     -0.029186      0.022724
O	      8.31879      6.09279      8.23857         0.036833      0.093668     -0.082500
O	      4.10922      8.22354      6.12392         0.265757      0.003790      0.207266
O	      4.06935      6.15986      8.38623        -0.078361      0.044309     -0.041833
O	      6.21771      6.00550     10.49126         0.117117      0.273158      0.092192
O	      8.31007      8.19187     10.61964        -0.066731     -0.029841     -0.031814
O	      2.08832      2.04491      2.05390        -0.006017      0.116444     -0.110585
O	      4.10154      4.09274      2.20722         0.295265      0.050027     -0.124073
O	      4.09421      2.09471      4.31403         0.006614     -0.161589      0.121663
O	      6.14376      4.21062      4.06971         0.142548     -0.070436     -0.257868
O	      6.23291      2.14704      6.26126        -0.087330      0.029220      0.054355
O	      8.19679      4.05756      6.43372        -0.000095     -0.153101     -0.105707
O	      2.17079      4.07008      4.14922        -0.121436     -0.003490     -0.017687
O	      4.25538      6.23988      4.20583        -0.053183     -0.047164     -0.030255
O	      4.20524      4.05963      6.19594         0.036237      0.271408     -0.172950
O	      6.30273      6.10346      6.21584        -0.095257     -0.070731      0.093143
O	      6.30964      4.11131      8.58357        -0.107234     -0.032759     -0.345825
O	      2.05121      6.21282      6.38483        -0.049377     -0.091937      0.193192
O	      6.21117      8.27910      8.36317        -0.021448     -0.072827     -0.072622
