# total energy = -265.33951967 eV
 
CRYSTAL
PRIMVEC
-0.006870 6.322653 6.265905 
6.291248 0.030070 6.228836 
4.209403 4.205758 0.004736 
PRIMCOORD
36 1
Li	      8.44701      8.50503     12.38654        -0.009533      0.031265     -0.078961
Li	      8.36244      4.12823      4.22979         0.002791     -0.035416     -0.006928
Li	      8.34906      4.25673      8.34642         0.015329     -0.022381      0.031016
Li	      4.14786      4.31674      4.33485        -0.001108     -0.021865     -0.037746
Li	      6.23342      4.25068      6.20834        -0.024677     -0.021906     -0.000187
Li	      4.22868      8.37023      4.24539         0.033502     -0.000766      0.032681
Li	      2.18602      6.24617      4.25548         0.002755     -0.006332     -0.002591
Li	      2.17582      4.28992      6.16301        -0.015401      0.035087      0.048343
Li	      4.15028      6.21921      6.14443        -0.027525     -0.021179      0.018272
Ti	      6.22005      0.06877      6.14195        -0.137067     -0.047562     -0.048176
Ti	      2.10505      0.03562      2.06497         0.003691     -0.065319     -0.154748
Ti	      4.13016      8.44184      8.26890         0.067476      0.059753     -0.156315
Ti	      6.34367      8.40276     10.47964         0.247453     -0.004365      0.057361
Ti	      4.22205      6.29753      2.09300        -0.114424      0.059905     -0.017578
Ti	      2.10417      2.23182      4.28438        -0.032977      0.536419      0.073144
Ti	      6.36424      6.27803      8.32592         0.060547     -0.126268     -0.008604
Mn	      4.26285      4.28012      8.28214        -0.046691     -0.043467      0.087900
V	      4.16896      2.14900      6.19654         0.027217      0.019493      0.018603
O	      2.08441      2.11584      2.14429         0.036159     -0.000006     -0.019681
O	      4.21397      4.20443      2.05269         0.015887     -0.028937      0.013582
O	      4.20645      2.10692      4.09521        -0.009388     -0.015874     -0.115764
O	      6.30866      4.23997      4.06702        -0.025323     -0.006878     -0.060115
O	      6.30860      2.17122      6.25624         0.119996      0.001949      0.012514
O	      8.54471      4.25676      6.21937         0.166441     -0.071114      0.014765
O	      2.11417      4.05558      4.20038        -0.005720     -0.423626      0.010391
O	      4.29818      6.31383      4.07516         0.079794      0.000983     -0.070004
O	      4.16728      4.20784      6.24215         0.024968      0.062208     -0.023407
O	      6.28106      6.29815      6.27784        -0.099523      0.017730     -0.022795
O	      6.36414      4.26080      8.32436         0.074677      0.003819      0.013629
O	      8.42073      6.29353      8.34119        -0.027206     -0.093126      0.064713
O	      1.97492      6.35929      6.39001        -0.025556     -0.001474      0.143487
O	      4.16445      8.50947      6.36201         0.019689     -0.013124      0.119893
O	      4.21085      6.42194      8.33399        -0.024553      0.161297      0.000345
O	      6.21081      8.42391      8.36080        -0.095136     -0.002817      0.004960
O	      6.28631      6.31866     10.37523        -0.026750      0.069689     -0.007125
O	      8.21251      8.41744     10.41388        -0.249813      0.014208      0.065127
