# total energy = -261.26494446 eV
 
CRYSTAL
PRIMVEC
0.021271 6.233786 6.337849 
6.248639 0.017885 6.341293 
4.191806 4.183919 -0.013997 
PRIMCOORD
36 1
Li	      6.29807      6.26130     12.59925         0.011739     -0.029374     -0.019901
Li	      6.30741      8.28792     10.61570         0.044150     -0.018961      0.032769
Li	      8.27446      4.23471      8.53664        -0.056736     -0.015022      0.037576
Li	      6.22451      6.30002      4.27067         0.030495      0.030584     -0.015792
Li	      6.22355      4.22085      6.33658         0.021109      0.028789      0.037634
Li	      6.30323      4.17487     10.51513        -0.041497     -0.003466     -0.027327
Li	      8.28912      6.24173     10.55339        -0.074676      0.038033     -0.000935
Li	      4.23652      6.23104      6.18770        -0.018573      0.023990     -0.029750
Li	      6.36024      6.17759      8.47174        -0.000940     -0.049951      0.004156
Ti	      6.22718      4.17771      2.17073         0.030621      0.049733      0.054808
Ti	      4.21111      2.14142      2.14662        -0.047597     -0.006076     -0.007272
Ti	      4.32157      6.22805     10.59293         0.291610     -0.006351     -0.006116
Ti	      4.22797      6.21909      2.21230         0.029652      0.029623      0.114539
Ti	      4.21896      2.03082      6.27181         0.010807     -0.081631     -0.031012
Ti	      2.02632      4.15312      6.20283        -0.095467      0.011978     -0.292855
Ti	      8.36888      8.40001      8.51856         0.076374      0.027155      0.045743
V	      8.36447      8.35827     12.61949         0.010932     -0.041157     -0.000808
Cu	      4.18960      4.29075      4.25594        -0.019450      0.090985      0.038262
O	      2.09432      2.09821      2.08800        -0.035011      0.022191      0.121867
O	      4.16049      4.15591      1.98912        -0.012363     -0.036752     -0.050654
O	      4.19135      2.05818      4.23675         0.012116     -0.001890      0.029491
O	      6.40891      4.18510      4.07386        -0.017350      0.023059     -0.019818
O	      6.19366      2.09919      6.38652        -0.169955      0.004159     -0.009239
O	      8.31359      4.24258      6.27679         0.038532      0.148963     -0.015090
O	      2.03078      4.20731      4.37147         0.063165     -0.036290      0.243334
O	      4.19792      6.30455      4.06953         0.020711     -0.027667     -0.134155
O	      4.09649      4.10023      6.48588         0.054332      0.012221      0.056751
O	      6.39941      6.38134      6.31896        -0.004987      0.005005     -0.026160
O	      6.14084      4.08112      8.43393        -0.018706      0.003259     -0.003074
O	      8.43206      6.31933      8.34963        -0.018014     -0.036729     -0.000538
O	      2.13775      6.17065      6.46381        -0.024394     -0.124924     -0.001203
O	      4.26078      8.29862      6.41131         0.153682      0.014117      0.030301
O	      4.20354      6.27118      8.48194        -0.007552     -0.046165     -0.015579
O	      6.29560      8.33368      8.42141         0.025047     -0.029824      0.015659
O	      6.16364      6.23631     10.55640        -0.286457      0.004280     -0.003931
O	      8.33923      8.34545     10.50672         0.024653      0.024105     -0.151681
