# total energy = -266.28843773 eV
 
CRYSTAL
PRIMVEC
0.021082 6.263525 6.226083 
6.292026 -0.048910 6.296172 
4.171166 4.199161 -0.009367 
PRIMCOORD
36 1
Li	      4.17759      2.04946      2.15562        -0.013353     -0.008632      0.001943
Li	      4.11190      0.14678      4.23222        -0.050820      0.063708     -0.017910
Li	      6.17195      2.11259      4.21718        -0.010161      0.029194      0.001018
Li	      2.13600      4.16410      2.02816         0.047751      0.005315     -0.039952
Li	      6.32858      6.23991      4.29193        -0.036955     -0.004481      0.054417
Li	      8.30722      6.20963      6.19356         0.023216     -0.005125      0.059241
Li	      6.33831      4.24015      6.16945         0.006544      0.018697     -0.006673
Li	      6.27242      8.20761      6.25860         0.011711     -0.046790      0.044691
Li	      4.32793      6.26077      6.23039         0.015504     -0.003685      0.005977
Ti	      6.30085      6.14739     12.43069        -0.190376      0.026486     -0.055980
Ti	      8.42123      8.35288     12.46893        -0.065890      0.227833     -0.060738
Ti	      6.35228     10.36037      8.33641         0.084088     -0.085855      0.222105
Ti	      6.27616      2.14204      8.40843        -0.013142      0.042586     -0.079341
Ti	      0.05348      4.19817      4.15113         0.003566      0.005499     -0.034922
Ti	      4.14661      4.05529      4.29665         0.082603     -0.375215      0.382098
Ti	      6.26553      6.22747      8.28837         0.017513      0.003648     -0.266027
V	      2.08631      6.24699      4.21335         0.011809      0.043722     -0.063118
V	      4.21345      4.18291      8.27475         0.005252     -0.053782      0.011596
O	      2.00198      2.00612      1.98836         0.010775     -0.016019     -0.028367
O	      4.23171      4.25947      2.07702         0.015489     -0.013131      0.007257
O	      4.15308      2.20633      4.18865        -0.008890      0.391659     -0.000710
O	      6.16465      4.18603      4.06418        -0.089952     -0.002633     -0.170332
O	      6.34831      1.96546      6.35656         0.046372     -0.041353      0.043980
O	      8.44644      4.06511      6.26812         0.134180     -0.208359     -0.031520
O	      2.11563      4.15308      4.14433        -0.013877     -0.054799     -0.000444
O	      4.19338      6.25195      4.15335         0.073084      0.035054     -0.097450
O	      4.20372      4.16993      6.16030        -0.027169     -0.020748     -0.380480
O	      6.29646      6.23911      6.41609        -0.009420      0.010970      0.271480
O	      6.35082      4.16108      8.31035         0.035023     -0.041003      0.050199
O	      8.38805      6.25370      8.39002         0.045834     -0.061249     -0.083675
O	      2.09507      6.29107      6.31330        -0.017995      0.032214      0.124125
O	      4.17062      8.37164      6.23571        -0.047961      0.013679     -0.012865
O	      4.18912      6.27404      8.36705        -0.002974      0.066755     -0.028566
O	      6.28835      8.36097      8.31859        -0.093236      0.056502      0.001239
O	      6.26326      6.26950     10.41246        -0.049988     -0.041548      0.024346
O	      8.44293      8.31930     10.42643         0.071844      0.010888      0.153357
