# total energy = -228.22985008 eV
 
CRYSTAL
PRIMVEC
-0.031318 6.313635 6.215249 
6.296470 -0.007994 6.191598 
4.188493 4.184304 0.003724 
PRIMCOORD
36 1
Li	      4.14480      4.23997      0.11946        -0.031881      0.030117      0.010812
Li	      6.17706      4.24637      2.12353        -0.040152      0.023225     -0.007115
Li	      8.29398      4.24910      4.16777        -0.013489      0.005920     -0.016140
Li	      4.09558      6.17063      2.13697        -0.009499     -0.032628      0.053753
Li	      2.21151      4.21370      2.09130        -0.027189     -0.010495      0.042850
Li	      2.14917      2.03579      4.09272         0.037446     -0.025034      0.001782
Li	      4.22329      4.16900      4.02510         0.026881     -0.019792      0.056454
Li	      4.20386      2.08494      6.17829        -0.016372      0.023435     -0.040721
Li	      4.24912      4.13915      8.25443         0.032514     -0.023511     -0.023613
Sc	      6.37603      6.23635      8.29002         0.033787     -0.074157     -0.067481
Mn	      8.36208      2.10203      6.22199        -0.045647      0.038663      0.057233
Mn	      4.16456      6.27175      6.19395         0.000650      0.014967     -0.116208
Cr	      4.16146      2.17166      2.06919        -0.067970     -0.020420     -0.037361
Cr	      6.28854      4.15487      6.21371         0.025051     -0.005820      0.020538
Fe	      6.21142      2.18626      4.09140         0.170910     -0.111398      0.030872
Co	      6.25560      4.23206     10.33762         0.073986     -0.169935     -0.176083
Co	      8.35329      6.30827     10.35008         0.102976     -0.105470     -0.164290
Co	      2.17951      4.22168      6.19778         0.068984     -0.129454     -0.217579
O	      2.17211      2.06899      1.91851         0.047013     -0.003823     -0.087990
O	      4.18435      4.09673      2.08310         0.023976     -0.030150     -0.016756
O	      4.28483      2.03405      4.05104        -0.081763      0.000915      0.002868
O	      6.30073      4.10665      4.22296         0.027423      0.088975      0.000013
O	      6.41227      2.13040      6.12536         0.042238      0.035964      0.042372
O	      8.28669      4.00494      6.18585        -0.022890     -0.054780      0.006283
O	      1.88351      4.36457      4.22532        -0.106867      0.149109      0.241639
O	      4.03862      6.46533      4.23696        -0.060093      0.041818      0.115058
O	      4.24043      4.24684      6.18271        -0.012684      0.010480      0.015887
O	      6.31187      6.20668      6.18032         0.004207      0.084581      0.013871
O	      6.25582      4.20142      8.34770         0.012827      0.022266     -0.064590
O	      8.38296      6.30113      8.40022        -0.041134      0.005803      0.079464
O	      2.05825      6.41553      6.10175         0.001790      0.033529      0.015214
O	      4.03630      8.39577      6.13392        -0.058649     -0.016657      0.134861
O	      4.20939      6.39498      8.10427         0.012617      0.003499      0.008222
O	      6.21033      8.39285      8.28859        -0.034179      0.083577     -0.024479
O	      6.38547      6.24384     10.37579        -0.004281      0.085707     -0.007548
O	      8.41057      8.28165     10.42298        -0.070537      0.050976      0.117907
