# total energy = -219.61396425 eV
 
CRYSTAL
PRIMVEC
0.036735 6.324027 6.206372 
6.252440 0.018909 6.223740 
4.187275 4.246107 -0.006755 
PRIMCOORD
36 1
Li	     10.36824      4.32626      6.20754        -0.004452      0.037579      0.059439
Li	      8.34474      4.33265      4.25823        -0.037502      0.062067      0.042003
Li	      6.21732      2.11589      4.25555         0.012714     -0.060765      0.027814
Li	      6.25541      2.09071      8.22906         0.008039     -0.084330     -0.039879
Li	      8.39146      4.25494      8.21908         0.068544      0.003224     -0.067133
Li	      4.20415      4.20226      4.12583        -0.018214     -0.011303     -0.062049
Li	      4.30413      2.06534      6.13511         0.068406     -0.006155     -0.044613
Li	      6.32916      4.14000      6.20641         0.085587     -0.033175      0.002026
Li	      0.05035      4.22513      4.15230         0.011790      0.032640     -0.016359
Sc	      6.30069      6.31118      8.32427         0.018394     -0.054454      0.011557
Mn	      8.27406      2.23907      6.16252        -0.043702      0.025159     -0.077417
Mn	      2.11365      2.11604      4.13946        -0.049246     -0.078637      0.014339
Cr	      2.13641      6.30074      4.13449         0.036821     -0.020272     -0.010413
Cr	      4.20089      6.34169      6.17913        -0.065176     -0.053376      0.056215
Fe	      4.27078      4.20550      8.27015        -0.100183     -0.013099      0.180270
Cu	      6.18513      4.27177      2.11793         0.074031     -0.055667     -0.028263
Cu	      2.08319      4.23396      6.18812        -0.062969     -0.021524     -0.093975
Ni	      4.14909      2.22471      2.10876         0.023096     -0.071575      0.046312
O	      4.27106      4.20541      2.05922        -0.178539      0.151597     -0.038776
O	      6.26778      4.44751      4.04909        -0.009128      0.098069      0.182874
O	      2.09284      2.05173      2.12206        -0.101291      0.231931     -0.042011
O	      3.99712      2.11873      4.13616        -0.064416      0.027508      0.180694
O	      6.42442      2.16332      6.19103         0.087085     -0.018987      0.016996
O	      8.36996      4.06719      6.22290         0.029754      0.036918     -0.007826
O	      2.10236      4.18195      4.21957        -0.019953     -0.007787     -0.010581
O	      4.23962      6.35562      4.20881        -0.001909     -0.002506      0.067935
O	      4.09732      4.30842      6.30340        -0.056125      0.115916     -0.078038
O	      6.20815      6.24902      6.07582         0.005946     -0.071511     -0.130195
O	      6.16676      4.29493      8.29586         0.195783      0.037857     -0.025018
O	      8.37079      6.42755      8.34615         0.001883     -0.036458     -0.041355
O	      2.19598      6.51664      6.17476         0.004152      0.040861     -0.165083
O	      4.15607      8.35039      6.26327         0.029687     -0.091081     -0.062589
O	      4.18157      6.30236      8.22322         0.042590     -0.014043      0.068906
O	      6.31560      8.53507      8.20599         0.048001     -0.099195      0.060805
O	      6.41821      6.35162     10.31337        -0.051248      0.019900      0.008168
O	      8.38294      8.35513     10.41056         0.011751     -0.015328      0.015223
