# total energy = -229.75214182 eV
 
CRYSTAL
PRIMVEC
0.027632 6.230739 6.306364 
6.250076 0.033346 6.300766 
4.173157 4.156485 0.015827 
PRIMCOORD
36 1
Li	      2.05358      2.11494      0.12631         0.017637     -0.016789      0.000402
Li	      6.27747      4.23112      2.24255         0.008815     -0.016550      0.013148
Li	      8.22644      4.15874      4.15214         0.016409     -0.024856      0.019657
Li	      6.24517      2.23597      4.09642         0.015161     -0.006862     -0.066266
Li	      2.10915      4.04229      2.08641        -0.016930      0.023919     -0.016096
Li	      6.21176      6.12629      4.11309        -0.020590      0.024198      0.002924
Li	      4.32817      4.18991      4.08412        -0.011267      0.025261     -0.048987
Li	      4.21521      6.23943      6.43362        -0.043549      0.027878      0.051894
Li	      6.16665      6.32066      8.40055         0.025310     -0.005319      0.015955
Sc	      4.11423      2.11309      6.13784        -0.053095     -0.008405     -0.071378
Mn	      4.10987      2.02335      2.20660         0.015700      0.055165     -0.032625
Mn	      4.20495      8.28915      4.22742        -0.020258     -0.041848      0.029219
Cr	      6.29734      4.19429      6.24412        -0.029467      0.029896     -0.051347
Cr	      4.16009      4.24903      8.40766        -0.028865      0.058825      0.010382
Fe	      4.18084      4.17361      0.08881         0.007926     -0.039082     -0.063235
Fe	      2.11847      6.19437      4.19946         0.042263      0.001660      0.038924
Co	      0.04988      2.08231      2.09655         0.128561     -0.083289      0.037496
Co	      6.26880      8.32408      6.35489         0.011534     -0.016487      0.047029
O	      2.00816      2.08052      2.09451        -0.084562      0.014491      0.017191
O	      4.15776      4.22388      2.04826        -0.026631     -0.045726      0.072787
O	      4.19019      2.10803      4.09655         0.010267      0.009703      0.062270
O	      6.24768      4.14365      4.35119         0.025391      0.037553      0.033060
O	      6.26567      2.11174      6.41569         0.002637      0.072268      0.011850
O	      8.35059      4.21054      6.30163        -0.042756      0.041812     -0.017727
O	      1.98436      4.18183      4.37528         0.005560     -0.055937      0.047032
O	      4.14211      6.32811      4.05967         0.029095     -0.031491     -0.053319
O	      4.14532      4.20244      6.37433         0.038747     -0.005835      0.031898
O	      6.27850      6.26779      6.33411         0.004589     -0.023172      0.016676
O	      6.21311      4.07869      8.32015        -0.021898      0.055029     -0.053535
O	      8.46771      6.34320      8.42264        -0.019598     -0.001220     -0.006395
O	      2.06716      6.09599      6.23169         0.050010      0.029195     -0.005772
O	      4.31298      8.34606      6.50321         0.008351     -0.039802      0.003137
O	      4.20334      6.25632      8.43881        -0.003402     -0.058550      0.020834
O	      6.33999      8.33073      8.28893         0.036609      0.003156     -0.047909
O	      6.34774      6.13465     10.61352        -0.049310     -0.001874     -0.041268
O	      8.48175      8.26595     10.44687        -0.028393      0.013086     -0.007906
