# total energy = -224.93061338 eV
 
CRYSTAL
PRIMVEC
0.008220 6.190631 6.373140 
6.200515 0.048511 6.331627 
4.183953 4.149057 -0.016527 
PRIMCOORD
36 1
Li	     10.33073      4.28750      6.44491         0.028779      0.026726     -0.002999
Li	      6.17812      4.18963      2.13912        -0.010101      0.041925     -0.055062
Li	      6.17673      2.03093      8.34018         0.038222      0.010481      0.031079
Li	      2.20286      4.11426      2.05212         0.012809      0.021075     -0.064368
Li	      4.28187      4.18048      4.05548        -0.003568      0.042231     -0.088347
Li	      8.27445      6.19824      6.40471        -0.032091      0.017417      0.042493
Li	      6.25781      4.20380      6.31772         0.024563     -0.053709      0.054312
Li	      6.30919      8.18519      6.41230        -0.008625      0.019262      0.028518
Li	      6.23913      6.21498      8.35648         0.004028     -0.029100      0.049272
Sc	      2.04367      6.07916      4.19726         0.039816      0.014435      0.036694
Mn	      8.24066      2.18758      6.39475         0.004162     -0.055099     -0.235218
Mn	      4.20509      6.19047      6.37418        -0.149246     -0.029565      0.126155
Mn	      8.29508      8.30284      8.42288         0.017757      0.099433      0.088553
Cr	      4.21517      2.16043      2.09290        -0.044335     -0.160581     -0.095368
Cr	     10.37613      8.30629     10.53206        -0.051116      0.064109      0.028365
Co	      4.14143      0.04992      4.21836         0.011783     -0.088698      0.073659
Cu	      6.28453      6.20909      4.25406        -0.031587      0.061924     -0.125834
Ni	      6.18855      2.18804      4.24807         0.019832     -0.098599      0.086530
O	      4.18331      4.05785      2.11406         0.038571      0.141882     -0.024813
O	      2.19493      2.11917      1.94240         0.001780     -0.012249      0.448933
O	      4.17076      1.98163      4.11809        -0.243595      0.035225      0.038186
O	      6.40810      4.25882      4.19937         0.008303     -0.052816      0.030227
O	      6.38167      2.13195      6.26760        -0.131180      0.003152      0.009598
O	      8.31656      4.08151      6.17441         0.012266      0.196382     -0.110077
O	      1.96880      4.07354      4.22954         0.079772      0.037702     -0.022398
O	      4.13884      6.24257      4.24967         0.128596     -0.068409     -0.212516
O	      4.11631      4.23183      6.57399        -0.020368     -0.046522     -0.007705
O	      6.07386      6.22899      6.36952         0.128432     -0.036181     -0.020108
O	      6.01793      4.14593      8.60678        -0.024849      0.029059     -0.065412
O	      8.28175      6.40143      8.47055        -0.049609     -0.025474      0.018338
O	      2.20939      6.35140      6.29743         0.046387     -0.092818     -0.050572
O	      4.07959      8.22019      6.36341         0.160061     -0.015906     -0.083908
O	      4.15312      6.16876      8.59741        -0.014194      0.005997      0.236168
O	      6.29259      8.30875      8.57502        -0.002128      0.009779     -0.053599
O	      6.15398      6.17171     10.61573        -0.066896     -0.006548      0.007619
O	      8.32145      8.38198     10.53670         0.077570     -0.005921     -0.116396
