# total energy = -227.66855368 eV
 
CRYSTAL
PRIMVEC
0.000914 6.182505 6.325359 
6.333929 0.019195 6.306367 
4.244133 4.130814 -0.008759 
PRIMCOORD
36 1
Li	      4.26921      4.12391      0.08451         0.011479     -0.018688      0.041532
Li	      2.07968      0.05214      2.09673        -0.056483      0.024673      0.008792
Li	      4.05908      2.11742      2.05172        -0.047428      0.039217      0.015859
Li	      8.35605      4.21078      4.21013        -0.031730      0.020721     -0.040623
Li	      0.08430      2.06007      2.05741         0.018462      0.009565      0.013636
Li	      2.18298      4.02567      2.11505         0.028332      0.005539      0.027594
Li	      6.35152      6.16901      4.19723        -0.011628      0.001911      0.025736
Li	      6.33816      4.12083      6.26119         0.049125     -0.055169     -0.006923
Li	      2.10429      4.11490      6.27018        -0.023218     -0.017379     -0.034514
Sc	      6.32049      6.19100      8.34256         0.151137     -0.028171      0.138769
Mn	      2.15211      2.08638      0.05246        -0.052200      0.257165      0.156557
Mn	      6.31992      2.09536      4.22736         0.055413      0.020993     -0.111108
Mn	      4.24855      4.15390      8.38844         0.006664     -0.015230      0.111914
Cr	      4.21976      4.08793      4.11269        -0.113525      0.104273     -0.278479
Cr	      2.18119      6.20443      4.25423        -0.010601     -0.031131     -0.083093
Co	      8.43022      6.09134      6.24512        -0.077483     -0.192742     -0.053658
Co	      4.27347      6.13658      6.31790        -0.044247      0.263247      0.052692
Ni	      0.07190      4.12866      4.27177         0.033949     -0.046173      0.001050
O	      2.08175      2.07959      1.89403         0.011367     -0.051762     -0.157329
O	      4.20535      4.13608      2.31719        -0.012822     -0.005739      0.065062
O	      4.16297      2.10187      4.21872        -0.021716     -0.080358     -0.006396
O	      6.13154      4.03708      4.21670         0.074261     -0.048444      0.034074
O	      6.45349      2.08585      6.18098         0.063482     -0.015579      0.018818
O	      8.47565      4.23712      6.31121         0.036338     -0.114952     -0.017506
O	      2.20786      4.22408      4.23251         0.057485     -0.004751      0.050635
O	      4.19444      6.13833      4.34510        -0.017631     -0.208650     -0.932747
O	      4.21095      3.93355      6.19129         0.040434      0.043176      0.010431
O	      6.39194      6.18577      6.30987         0.041880      0.000547      0.135485
O	      6.19967      4.14157      8.51176         0.039128      0.042899     -0.087145
O	      8.46936      6.32033      8.45968        -0.012733     -0.065209      0.036951
O	      2.15489      6.32366      6.24885        -0.126425      0.030826     -0.016755
O	      4.09197      8.26707      6.30375         0.049605      0.152602      0.099061
O	      4.25331      6.09668      8.31696         0.072514     -0.115431      0.795116
O	      6.51877      8.28381      8.54786        -0.056018     -0.022815      0.000079
O	      6.49170      6.27658     10.50221        -0.018459      0.182628     -0.053065
O	      8.55647      8.27541     10.65726        -0.106709     -0.061607      0.039500
