# total energy = -232.31250589 eV
 
CRYSTAL
PRIMVEC
0.000018 6.248972 6.255901 
6.306372 -0.013085 6.268986 
4.198518 4.168952 -0.003024 
PRIMCOORD
36 1
Li	      0.04557      6.20567      6.22838        -0.015573      0.041377     -0.085192
Li	      2.04409      0.02385      2.05388        -0.020501      0.021687     -0.011702
Li	      8.44643     10.38267     10.46342         0.053925      0.018305      0.017028
Li	      8.42773      4.13790      8.27830         0.017479      0.016051     -0.012049
Li	      8.32378      6.16560      6.30944        -0.013465     -0.050158     -0.046545
Li	      6.35298      4.17433      6.26440         0.005179     -0.017548      0.000879
Li	      6.34639      4.27305     10.42615         0.063183      0.015487      0.067454
Li	      8.30126      6.26536     10.48267         0.019541      0.009587     -0.016951
Li	      2.10585      4.19405      6.27624         0.029024     -0.024757     -0.016826
Sc	      4.19242      6.27478      6.26822         0.034531      0.027520     -0.179380
Mn	      6.36079      6.19814      8.37315         0.063768     -0.098676     -0.053359
V	      4.12681      4.14324      4.18042        -0.195568     -0.023959     -0.007734
Cr	      8.40194      2.16435      6.22626        -0.002690      0.226962      0.063687
Cr	      6.29190      2.05563      4.19109        -0.057549     -0.029557      0.065092
Cr	      8.40160      8.31983      8.35639         0.080574      0.043505     -0.040476
Fe	      6.30881      2.07395      8.30795        -0.025536     -0.106992      0.052193
Co	      4.16396      2.11342      2.06200         0.044515      0.061883     -0.088162
Cu	      6.37611      6.16146      4.21607        -0.007492      0.063331      0.036525
O	      2.01159      2.11286      1.93093        -0.028644     -0.003699     -0.148014
O	      4.18070      4.22627      2.20781         0.011701      0.089825      0.054912
O	      4.21754      2.12422      4.06978         0.139249     -0.029528      0.701232
O	      6.08888      4.10855      4.21751         0.054995     -0.067415     -0.029678
O	      6.43390      2.02725      6.23822         0.097502      0.045812     -0.096183
O	      8.41106      3.99803      6.21787        -0.013882     -0.242322      0.009476
O	      2.28939      4.05910      4.22900         0.067348      0.097220      0.003880
O	      4.32702      6.14339      4.13036        -0.127006     -0.001012      0.041768
O	      4.16495      4.18809      6.27346         0.024562     -0.017008      0.058842
O	      6.30567      6.23339      6.45609        -0.078246     -0.000796      0.141661
O	      6.21293      4.08274      8.40682        -0.102935      0.204512     -0.048786
O	      8.49224      6.30973      8.33879        -0.140923      0.068557      0.060568
O	      2.14985      6.43641      6.20847         0.057984      0.039433      0.033876
O	      4.08686      8.37091      6.30203        -0.124786     -0.175886     -0.541645
O	      4.24047      6.20019      8.35498         0.034843     -0.156564     -0.061725
O	      6.35617      8.31955      8.42659         0.083623     -0.082834      0.035533
O	      6.32899      6.30244     10.29373        -0.001104      0.060350     -0.005365
O	      8.28519      8.35708     10.41025        -0.027624     -0.022692      0.045168
