# total energy = -235.76787534 eV
 
CRYSTAL
PRIMVEC
0.000259 6.389532 6.315265 
6.140751 0.020353 6.294166 
4.113393 4.263397 -0.004351 
PRIMCOORD
36 1
Li	      8.16461      8.57657     12.52769         0.002068      0.033756     -0.004957
Li	      6.14864      4.34045      2.20200        -0.026234      0.019073      0.011131
Li	      8.05269      4.16745      4.28632        -0.018430      0.004195     -0.018128
Li	      6.24106      2.28040      4.22890         0.031249     -0.012225     -0.043294
Li	      2.02610      4.23479      2.11004        -0.025955      0.018977     -0.004033
Li	      6.14466      6.33364      4.20111        -0.000861     -0.039915     -0.002274
Li	      6.24244      4.25026      6.14651         0.016225     -0.002141      0.045166
Li	      2.06594      6.40175      4.26948         0.004055     -0.026028     -0.021327
Li	      2.02930      4.29049      6.20318         0.014092     -0.006180      0.019046
Sc	      3.96405      2.17951      2.14914         0.031398      0.096274      0.021365
Mn	      0.06559      4.26404      4.22716         0.064304     -0.030158     -0.125457
V	      6.19659      6.45813      8.42430         0.079687     -0.037162      0.052606
Cr	      0.04564      2.12575      2.10573        -0.012081      0.168702      0.005590
Cr	      4.12060      4.26744      4.21441        -0.100165     -0.006539     -0.033391
Cr	      4.07707      2.11920      6.24439        -0.035861      0.001921      0.009616
Fe	      6.17709      6.46110     12.46834         0.130435     -0.051369      0.073060
Fe	      3.97934      6.33308      6.27914         0.105690      0.077815     -0.112524
Co	      8.18775      8.55734      8.45031         0.105975     -0.082522      0.329733
O	      1.98832      2.15615      2.07719         0.042153     -0.042813      0.019160
O	      4.11590      4.32564      2.13238        -0.034846     -0.021707     -0.021129
O	      4.06434      2.26115      4.23658        -0.016064     -0.048858     -0.009401
O	      6.06704      4.24270      4.18776         0.034974      0.035970     -0.007303
O	      6.09593      2.08454      6.39294         0.050903      0.068358     -0.015326
O	      8.33853      4.41192      6.24091        -0.135014     -0.001736      0.024362
O	      1.99166      4.24565      4.21909         0.076072     -0.008593     -0.001857
O	      4.11319      6.31506      4.21369        -0.044086     -0.016090     -0.025784
O	      4.07094      4.27146      6.27460        -0.009495     -0.018509      0.009348
O	      6.14978      6.33540      6.48559        -0.094315     -0.042170     -0.049893
O	      6.16344      4.30047      8.46459         0.255870     -0.090221      0.099247
O	      8.20588      6.41021      8.27806         0.065690      0.242471      0.015935
O	      2.06262      6.37427      6.35199        -0.135082      0.015691     -0.021156
O	      4.10866      8.53626      6.30601         0.021883     -0.087049      0.002787
O	      4.18984      6.43609      8.31557        -0.094681     -0.250023      0.003708
O	      6.12671      8.28188      8.45938        -0.244648      0.019352      0.054409
O	      6.21279      6.41419     10.45669        -0.021589      0.055291     -0.110747
O	      8.38682      8.53307     10.45303        -0.083317      0.064165     -0.168288
