# total energy = -232.72869837 eV
 
CRYSTAL
PRIMVEC
0.022704 6.354995 6.399364 
6.309149 -0.019817 6.443168 
4.187285 4.246644 0.004944 
PRIMCOORD
36 1
Li	      6.19368      0.23014      6.48399         0.001070     -0.017227      0.005309
Li	      8.15768      2.22552      6.41436         0.091926      0.002192      0.042207
Li	      6.33464      2.09125      4.60290         0.029527     -0.012995     -0.008383
Li	      6.31694      2.14210      8.33836         0.004987      0.031392      0.065950
Li	      8.26749      4.31301      8.39430         0.069022      0.011905     -0.057535
Li	      8.62335      6.17677      6.49549        -0.092948     -0.013664      0.016028
Li	      6.48342      3.97859      6.54438         0.014316     -0.023423      0.045717
Li	      6.31920      4.30569     10.53994         0.046555      0.029046     -0.061748
Li	      6.43181      6.19977      8.65958         0.016772      0.027888     -0.011364
Sc	      4.37303      4.13622      8.54965         0.027577     -0.088947      0.023471
Mn	      2.08984      2.12313      4.23185        -0.054483     -0.032975      0.116053
V	      6.18716      8.50158      6.40232        -0.133337     -0.175834     -0.030788
Cr	      4.22532      4.18281      4.29087         0.014215     -0.032342     -0.061698
Cr	      8.34429      6.39241     10.69371        -0.034201      0.068299     -0.076018
Cr	      4.21157      6.35442      6.41670         0.043932      0.156695      0.038321
Fe	      6.22597      4.27297      2.17859         0.033511      0.027498     -0.079885
Fe	      8.58300     10.52429     10.89397        -0.119295     -0.007719     -0.151624
Ni	      4.19821      2.11408      2.17458         0.003273      0.010579     -0.074268
O	      6.29449      2.10160      6.46656        -0.018610      0.014946      0.025680
O	      2.12490      2.03252      2.30504        -0.100656     -0.022355      0.029716
O	      4.27499      4.15475      2.29202        -0.094783      0.097398      0.086907
O	      4.09839      2.12226      4.24908        -0.102363      0.047254      0.113354
O	      6.26622      4.20758      4.19451         0.010829     -0.041589      0.055596
O	      8.41633      4.21237      6.31931        -0.031019      0.006882      0.219992
O	      2.18126      4.34777      4.39768         0.014389      0.113431     -0.054068
O	      4.18658      6.24163      4.41203         0.077097     -0.065576     -0.005423
O	      4.04425      4.32871      6.35577         0.059337     -0.008931     -0.014531
O	      6.20991      6.52173      6.22604         0.022137      0.028931     -0.103798
O	      6.30172      4.25609      8.53719        -0.037919     -0.007675     -0.029188
O	      8.40258      6.36930      8.73747        -0.003104      0.048049      0.020715
O	      2.17638      6.27354      6.39431        -0.009072      0.051204     -0.057559
O	      4.35617      8.38720      6.43660        -0.026531     -0.101107     -0.091680
O	      4.14678      6.36756      8.47401         0.000213     -0.095353     -0.004587
O	      6.32375      8.57208      8.33455         0.105357      0.007041      0.139501
O	      6.32409      6.34941     10.69656         0.161441      0.040705     -0.027018
O	      8.43751      8.46920     10.64860         0.010837     -0.073625     -0.043352
