# total energy = -231.54540933 eV
 
CRYSTAL
PRIMVEC
0.023887 6.343406 6.129276 
6.402653 -0.019796 6.172250 
4.267866 4.257079 -0.010275 
PRIMCOORD
36 1
Li	      4.46657     10.47676      6.19296        -0.020997     -0.064936      0.100339
Li	      2.20049      8.40450      6.17880         0.003032     -0.000541      0.051402
Li	      2.22502      6.38406      8.03697        -0.023111      0.078340      0.092121
Li	      6.34135      2.09930      8.07162         0.014894      0.030257     -0.006130
Li	      8.57460      6.37533      6.28153        -0.038890     -0.009628     -0.039564
Li	     10.60574      8.55494     10.37616        -0.020665     -0.047302     -0.038784
Li	      6.28858      8.55786      6.26779         0.039348     -0.000524     -0.011002
Li	      8.60812      8.39151      8.21357         0.135051     -0.067057     -0.052065
Li	      6.44668      6.33419      8.15535        -0.029304     -0.122293     -0.034051
Sc	      2.14105      2.14922      4.02147         0.013845     -0.043744     -0.024607
Mn	      4.27645      4.23785      4.05986         0.043995      0.097790      0.020032
Mn	      6.42021      4.23481      6.16379         0.084260      0.196334      0.031656
V	      6.54663      8.41728     10.16109         0.778469     -0.912879      0.319541
Cr	      8.47899      4.22623      8.13636        -0.075878     -0.000784     -0.145951
Cr	      2.13731      6.32069      4.09024         0.090576     -0.121516      0.002782
Cr	      4.25877      6.35832      6.23521         0.036158     -0.025097      0.095640
Cu	      4.28471      8.46450      8.11544        -0.040975     -0.035914     -0.089218
Cu	      4.40512      6.26422     10.23563         0.342573     -0.160937      0.067463
O	      4.31650      6.47642      8.25686         0.015902     -0.019698     -0.561485
O	      1.95330      2.20285      2.05253        -0.052319     -0.037776     -0.064145
O	      4.11826      4.17753      2.10628         0.079000      0.013063     -0.231201
O	      4.30671      2.30090      4.05966         0.218134      0.065300      0.084576
O	      6.51513      4.23621      4.15534        -0.464067     -0.443326      0.021280
O	      6.35308      2.32591      5.97436         0.065829     -0.078739     -0.296078
O	      8.34681      4.27621      6.10927        -0.073006     -0.032611      0.405791
O	      2.06842      4.24239      4.01598        -0.171415      0.082759      0.087961
O	      4.21856      6.21646      4.16887        -0.060232      0.115833     -0.060544
O	      4.44533      4.28993      6.05415        -0.080709     -0.006901      0.213905
O	      6.31085      6.21628      6.12090         0.053194      0.003000      0.031023
O	      6.45713      4.22188      8.02939        -0.064194      0.015577     -0.014673
O	      8.54085      6.21614      8.27100         0.011282      0.119134      0.041671
O	      2.26095      6.28117      6.09341        -0.120079      0.010176     -0.002268
O	      4.30756      8.35175      6.17858        -0.010050      0.057708     -0.144475
O	      6.52964      8.54837      8.38940        -0.023131     -0.022265      0.347708
O	      6.46795      6.48492     10.34286        -0.079994      1.069580     -0.184720
O	      8.48151      8.29428     10.25256        -0.576528      0.299615     -0.013930
