# total energy = -233.54241855 eV
 
CRYSTAL
PRIMVEC
-0.024869 6.398450 6.236288 
6.345113 -0.019818 6.230915 
4.214401 4.246652 0.002529 
PRIMCOORD
36 1
Li	      6.33590      0.07705      6.24078         0.109914      0.050873     -0.070267
Li	      2.05054      2.10236      0.05089        -0.027226     -0.087238     -0.045126
Li	      6.27106      4.25380      2.04185        -0.074356      0.024108      0.062370
Li	      4.21848      0.08360      4.19281        -0.071627      0.040298      0.042454
Li	      6.26073      2.07548      4.20328        -0.011913      0.002499      0.061290
Li	      4.24893      4.20465      4.12976         0.027435     -0.025825     -0.002542
Li	      4.29544      2.05490      6.08639         0.029805     -0.017451     -0.095686
Li	      2.13012      4.30874      6.24310         0.009438      0.106527     -0.088855
Li	      4.15168      6.38083      6.26891        -0.103466     -0.002554     -0.093414
Sc	      4.18387      8.54643      4.37129         0.109513      0.042681      0.194041
V	      4.11645      4.36311      8.28034        -0.052210      0.052023     -0.330322
Cr	      4.19977      6.33802      2.05971        -0.030553     -0.041263      0.004121
Cr	      2.13598      4.23352      2.04966         0.056226     -0.014278     -0.055224
Cr	      6.31871      6.40626      8.27471         0.076157     -0.016981     -0.013857
Fe	      4.21904      8.54324      8.26084        -0.000844      0.061693      0.218465
Fe	      6.41850      6.32872      4.24042        -0.018174     -0.052422     -0.006396
Fe	      6.39981      4.15413      6.11023        -0.102209      0.084084     -0.008351
Co	      2.10478      6.38307      4.25388        -0.042168     -0.051847      0.159251
O	      1.98183      2.21453      2.15923        -0.085725      0.054026     -0.127188
O	      4.10651      4.37708      2.04969        -0.011364      0.039580      0.001154
O	      4.13250      2.13352      4.04767         0.147575     -0.018544      0.088241
O	      6.30637      4.34282      4.18972        -0.036728     -0.035720     -0.119090
O	      6.31598      2.19907      6.30724         0.020494     -0.062247      0.060277
O	      8.35998      4.23537      6.31023         0.094847     -0.003678      0.027905
O	      2.06546      4.17981      4.09084        -0.056472     -0.042903      0.068782
O	      4.17461      6.39731      4.10762        -0.162808      0.158257     -0.034072
O	      4.31967      4.18828      6.47213        -0.046009     -0.034307      0.222853
O	      6.33207      6.28175      6.23356        -0.001761     -0.016834      0.248373
O	      6.35209      4.26798      8.30464         0.025949      0.028375      0.063158
O	      8.43210      6.32746      8.45658        -0.001189     -0.058054      0.041919
O	      2.10232      6.38408      6.05868        -0.011940      0.016631     -0.238335
O	      4.18365      8.50939      6.31010        -0.020525     -0.030338     -0.290830
O	      4.32235      6.26325      8.31740         0.020406      0.002724     -0.022469
O	      6.42944      8.41233      8.27842         0.056616     -0.075317      0.011055
O	      6.42124      6.36835     10.29846         0.137444     -0.107136     -0.032883
O	      8.47796      8.45423     10.16845         0.047443      0.030561      0.099198
