# total energy = -247.90675634 eV
 
CRYSTAL
PRIMVEC
0.015213 6.479500 6.335198 
6.222419 0.008959 6.341449 
4.152875 4.328714 0.001124 
PRIMCOORD
36 1
Li	      4.13111      4.27403      0.05222         0.007379      0.023651     -0.004678
Li	      2.12835      2.21150      0.03415         0.001806     -0.021879      0.015159
Li	      4.15234      2.12426      2.22222        -0.005619     -0.069771     -0.016972
Li	      4.11739      0.15847      4.19463         0.021555      0.005971     -0.089504
Li	      2.22869      2.16047      4.19354        -0.037733      0.035559     -0.035490
Li	      4.18263      4.13234      4.23825        -0.052794     -0.002097      0.020806
Li	      4.14594      2.23257      6.18131         0.008242      0.076446      0.044121
Li	      4.18296      6.48727      6.39327        -0.017276     -0.012219      0.023055
Li	      4.11004      4.42833      8.36976        -0.009500      0.068250     -0.024727
Sc	      2.13527      6.50101      4.34847        -0.003704     -0.108577      0.032178
Mn	      6.12510      4.41437      6.21566        -0.069724      0.001093     -0.026393
V	      2.15480      6.46936      8.45258         0.012186      0.008454      0.055519
V	      6.22674      2.17739      8.36179         0.010048      0.025505      0.012247
V	      2.16964      4.25717      2.02782         0.023136     -0.017487      0.259709
V	     10.30788      8.67145     10.63427         0.102633      0.067464     -0.126040
V	      6.27561      8.58817      6.32323         0.110811      0.056888      0.040903
V	      6.14203      6.51536      8.43816        -0.043620     -0.021296      0.033844
Cr	      6.16758      2.17753      4.27746        -0.066395     -0.036159     -0.071640
O	      2.01351      2.20858      2.09800        -0.017405      0.078234      0.011257
O	      4.14884      4.41644      2.09338        -0.004558      0.035209      0.046313
O	      4.23512      2.13829      4.23279         0.011469     -0.026334      0.036396
O	      6.23502      4.19448      4.09756         0.038669     -0.048292      0.069416
O	      6.20354      2.23478      6.33787         0.067178     -0.041867      0.051625
O	      8.27982      4.31369      6.61131        -0.000528     -0.021153     -0.214266
O	      2.03360      4.33168      4.13424        -0.096916      0.082315      0.012525
O	      4.13968      6.60809      4.05230        -0.055447     -0.015227      0.049509
O	      4.06447      4.34300      6.33399        -0.043448      0.011632     -0.033063
O	      6.24123      6.56711      6.45680        -0.009041     -0.035933      0.003914
O	      6.29006      4.35997      8.53614         0.087421     -0.094801     -0.019437
O	      8.28824      6.31269      8.53287         0.072525     -0.061420     -0.044847
O	      2.09277      6.35066      6.41583        -0.051691      0.005685     -0.042051
O	      4.25366      8.65510      6.21916        -0.036538     -0.016350      0.066744
O	      4.15445      6.48822      8.44928         0.043350      0.012966     -0.050089
O	      6.24982      8.63537      8.50208        -0.006646      0.053195      0.022225
O	      6.23067      6.53151     10.49563         0.048460      0.002323     -0.068143
O	      8.30838      8.57736     10.62831        -0.038284      0.000019     -0.040125
