# total energy = -198.46390669 eV
 
CRYSTAL
PRIMVEC
-0.009721 6.187480 6.284330 
6.247048 -0.003607 6.277769 
4.176270 4.132306 -0.013774 
PRIMCOORD
36 1
Li	      2.20253      8.27375      6.28693         0.002726      0.022809     -0.040638
Li	      4.11691      2.09430      2.04528         0.002830      0.026591     -0.030048
Li	      4.23651      6.10038     10.44262        -0.055690      0.012349     -0.010579
Li	      6.18300      2.10369      4.13208         0.009665     -0.017927     -0.030631
Li	      2.17786      4.09056      2.10683        -0.052405      0.007887     -0.013478
Li	      2.14716      2.11994      4.21959         0.001412     -0.022326      0.039123
Li	     10.33103      8.30066     10.55872        -0.020672     -0.054746     -0.036768
Li	      6.17756      8.18830      6.28899        -0.025515      0.028354      0.017627
Li	      4.23829      6.32086      6.34710         0.018782      0.010342     -0.012827
Sc	      2.03855      6.16588      4.30483         0.072707      0.144659      0.004017
Ti	      0.18150      2.08113      2.08244         0.247751      0.251198      0.061787
Cu	     10.35974     10.26865     12.48095        -0.002941     -0.006673     -0.049423
Cu	      4.15643      4.09276      4.18266        -0.033985      0.200905     -0.057679
Cu	      8.30989      8.24403      8.40053         0.077064      0.045795     -0.092328
Cu	      6.21714      6.19183      8.39249        -0.124595     -0.005978      0.076068
Ni	      2.08211      6.17501      8.36575         0.260701     -0.407038     -0.057639
Ni	      8.30779      6.19586      6.26040        -0.086992     -0.016673     -0.072940
Ni	      6.26770      4.13238      6.20006         0.039069      0.003606     -0.015848
O	      4.12289      8.33184      6.24461         0.097766      0.077545      0.027081
O	      4.21805      6.07456      8.33709        -0.200961      0.109645      0.133415
O	      6.34068      8.17197      8.36355        -0.181544      0.433961      0.053495
O	      1.99168      2.07620      2.04177        -0.282939      0.030764      0.017216
O	      4.18427      4.24296      1.89797        -0.104383     -0.085505      0.176746
O	      4.14719      2.25267      4.25102         0.025600     -0.142031     -0.237116
O	      6.04412      4.12757      4.15008         0.105986     -0.010993     -0.113257
O	      6.09762      2.05822      6.36996         0.203568     -0.195064      0.077323
O	      8.32615      4.31059      6.18603        -0.041220     -0.247793     -0.020089
O	      2.27022      4.11473      4.18344        -0.023928     -0.027915      0.001023
O	      4.15519      6.04817      4.03091         0.063428      0.002653     -0.014067
O	      4.21035      3.96863      6.47916        -0.080403      0.212010     -0.155023
O	      6.37879      6.12379      6.37816        -0.228273      0.059677     -0.045300
O	      6.22108      4.04801      8.35514         0.018775     -0.358028      0.057996
O	      8.27627      6.23274      8.39915         0.239895     -0.043747      0.131860
O	      1.98851      6.22153      6.32739         0.262951      0.032419     -0.016597
O	      6.23084      6.16082     10.46518        -0.120228      0.016602      0.043641
O	      8.34053      8.24352     10.31068        -0.084001     -0.087336      0.203859
