# total energy = -100.54153136 eV
 
CRYSTAL
PRIMVEC
-0.000426 2.057776 2.058400 
9.092553 -4.226776 4.227498 
2.179276 4.101891 -2.044857 
PRIMCOORD
16 1
Li	      0.33531      1.94728      2.17143        -0.014264     -0.005218      0.009659
Li	      2.53632      1.92651      0.13421        -0.013190     -0.003805      0.005271
Li	      4.28388      1.99605      2.12219         0.016486      0.011106     -0.014370
Li	      4.24771      0.11682      4.00108         0.005255     -0.006235      0.010635
Ti	      8.90527      1.96324      2.15439        -0.323791     -0.002843      0.001651
Ti	      9.24576     -0.12450      4.24239         0.694413     -0.033626      0.029114
Ni	      2.42847     -0.01923      2.07942        -0.059651     -0.001307     -0.002425
Ni	      6.41833      0.02950      2.02566         0.196289     -0.073328      0.077567
O	      7.05402      1.91740      2.19678         0.386032      0.106242     -0.101493
O	      6.92334     -0.13754      4.25626         0.025411     -0.087241      0.080910
O	      9.03865     -0.11238      2.17182        -0.013859     -0.011537      0.010360
O	      8.85384     -2.08540      4.14534        -0.022575      0.081985     -0.081548
O	      1.92360      4.08625      0.03104        -0.663709      0.023765     -0.025100
O	      2.23616      1.95191      2.16694         0.011926      0.096489     -0.099514
O	      4.46633      2.12359     -0.06495         0.009256     -0.109320      0.109401
O	      4.54500     -0.03098      2.09085        -0.234028      0.014873     -0.010118
