# total energy = -238.93445463 eV
 
CRYSTAL
PRIMVEC
0.019792 6.303963 6.387298 
6.347673 0.005967 6.401191 
4.230148 4.210178 0.005802 
PRIMCOORD
36 1
Li	      4.22463      4.19725      0.02832         0.015223     -0.011926      0.038054
Li	      6.51348     10.31652      8.52794         0.003696      0.033986     -0.007815
Li	      4.43341      8.31259      8.51473        -0.009890      0.005814      0.040196
Li	      4.25161      6.29051     10.50140         0.023257     -0.028740     -0.002602
Li	      6.32620      8.45606     10.49292        -0.041244      0.016794     -0.039836
Li	      8.45167      6.35732     10.66378        -0.050897      0.021959      0.045352
Li	      6.37733      8.48741      6.55868         0.020534      0.052050     -0.044318
Li	      4.21192      6.30012      6.58942        -0.032245      0.013864      0.004749
Li	      8.32404      8.53106      8.51937         0.064519     -0.029691     -0.033630
Sc	      2.20235      2.08618      4.24999         0.022662     -0.061052      0.026316
V	      2.14822      8.26704      6.36240         0.048867     -0.179298     -0.008590
V	     10.53019      6.30817      8.53807        -0.008276      0.042162     -0.016394
V	      6.33012      4.19267      6.39382        -0.121859      0.012567     -0.082262
V	     10.54770      8.51051     10.72452        -0.004085      0.029930      0.105871
V	      4.21954      4.23679      4.28565         0.005360      0.010915      0.042899
Cr	      6.29637      6.39706      8.49022         0.039187     -0.018509      0.038814
Fe	      8.48913      4.24085      8.50516         0.027951     -0.053972      0.047144
Ni	      4.26714      2.08277      6.37175         0.028582     -0.050896     -0.019333
O	      2.00519      2.14858      2.08046         0.071719      0.047287      0.026490
O	      4.23909      4.33933      2.27871         0.017212     -0.052367     -0.045962
O	      4.21555      2.18094      4.32398         0.061752     -0.036273     -0.152517
O	      6.26577      4.24247      4.33344        -0.007439     -0.029042     -0.017670
O	      6.39987      2.13059      6.45266         0.030272     -0.056111     -0.002116
O	      8.35772      4.06958      6.39182         0.076788     -0.046299     -0.103589
O	      2.09961      4.19500      4.30485        -0.020899      0.049847      0.136965
O	      4.26945      6.43311      4.21974        -0.022103      0.038381     -0.029980
O	      4.32558      4.17575      6.28609        -0.016374      0.069860     -0.005554
O	      6.40417      6.22379      6.43262        -0.106371      0.030391      0.004733
O	      6.30271      4.18557      8.55829        -0.054474      0.040828     -0.042377
O	      8.48262      6.29630      8.45634        -0.042306     -0.009608      0.066190
O	      2.09937      6.49726      6.42337         0.002572      0.149858      0.030284
O	      4.11370      8.46059      6.23822         0.056799     -0.006345      0.055269
O	      4.36200      6.32350      8.52063        -0.050657     -0.025039      0.019653
O	      6.38237      8.32399      8.51465         0.025470     -0.006500      0.007779
O	      6.39987      6.10332     10.53324         0.005899      0.039594     -0.026142
O	      8.61980      8.39055     10.81446        -0.059201     -0.004419     -0.056073
