# total energy = -241.20406221 eV
 
CRYSTAL
PRIMVEC
0.020407 6.192623 6.299115 
6.402766 0.003458 6.316150 
4.268018 4.139489 0.002801 
PRIMCOORD
36 1
Li	      4.31428     10.27188      6.33668         0.070110      0.035036      0.037854
Li	      2.21700      6.15597      8.36023         0.007555      0.094053     -0.008093
Li	      4.32396      8.22905      8.34992         0.009530      0.001463     -0.054052
Li	      4.31585      6.19890     10.42449         0.087487     -0.024879     -0.118917
Li	      2.18625      4.11116      2.08466         0.046072     -0.049722      0.068947
Li	      6.41454      4.16041      6.29494        -0.029292      0.007122     -0.024866
Li	      8.49061      6.21008     10.55495        -0.077341      0.009311      0.052653
Li	      6.38382      8.29756      6.36796         0.016671     -0.072549     -0.026827
Li	      4.27765      6.23092      6.40716         0.002594      0.085652      0.006943
Sc	     10.65327      6.15411      8.38336         0.058655      0.002775     -0.302420
V	      2.23323      8.25604      6.32751        -0.140219      0.117196      0.261583
V	      2.19122      2.01921      4.17914         0.204467     -0.017920      0.065789
V	      8.52130      6.08492      6.32122        -0.164174     -0.107576     -0.185450
V	      6.45324      4.23969     10.54897         0.071443      0.119783      0.028690
V	      4.23166      4.16027      4.23527        -0.098208     -0.023142      0.007328
Cr	      6.43288      8.25246     10.48417        -0.019540      0.019142      0.066172
Cr	      4.25290      4.19537      8.37107        -0.040284      0.054106     -0.025059
Ni	      6.36667      6.22193      8.37146        -0.042673      0.000285     -0.177335
O	      2.09246      2.08280      2.08108        -0.024531      0.030377     -0.270141
O	      4.22953      4.15570      2.25606        -0.049363     -0.057978      0.001298
O	      4.34568      2.06897      4.25266        -0.524558     -0.041293     -0.210993
O	      6.24783      4.12565      4.21864         0.065008     -0.308865      0.063281
O	      6.38580      2.05605      6.25939         0.016961     -0.015619      0.049056
O	      8.51741      4.02979      6.34172         0.037975      0.180808     -0.058945
O	      2.17160      4.03517      4.24262         0.050916      0.405577      0.068721
O	      4.36714      6.28513      4.17628         0.338381     -0.090272      0.135284
O	      4.25780      3.99431      6.32395         0.019336      0.049683     -0.009925
O	      6.55302      6.14304      6.20426        -0.005524     -0.011775      0.544668
O	      6.29483      4.14844      8.51136         0.035389     -0.217918      0.018441
O	      8.53060      6.25496      8.37512         0.111761      0.026320      0.034284
O	      2.13068      6.47264      6.30184         0.010047     -0.220658     -0.075455
O	      4.17419      8.31324      6.20431         0.071574     -0.057582      0.045565
O	      4.33415      6.13585      8.36494        -0.047337      0.001436      0.030549
O	      6.52144      8.26404      8.49299        -0.048360      0.035481      0.016508
O	      6.45226      6.22521     10.47874        -0.010416      0.026303      0.061680
O	      8.50191      8.30745     10.53198        -0.010113      0.015839     -0.116815
