# total energy = -242.36678392 eV
 
CRYSTAL
PRIMVEC
0.008107 6.259788 6.372447 
6.351368 0.017544 6.362877 
4.235438 4.168010 0.010503 
PRIMCOORD
36 1
Li	      4.26324      8.31024      8.48129         0.029034     -0.007064     -0.020810
Li	      6.40682      8.33022     10.64479         0.039434      0.011971      0.060614
Li	      6.30908      6.25595      4.34777        -0.010757     -0.016802      0.041598
Li	      8.44696      6.28074      6.39368        -0.029249      0.001022      0.014213
Li	      6.30908      4.22576      6.42159        -0.012318      0.003958      0.025418
Li	      4.25190      8.27627      4.25961        -0.030602      0.023894     -0.038111
Li	      8.50116      6.31219     10.59390         0.015707      0.031292     -0.030121
Li	      4.27311      6.25561      6.30031        -0.021578      0.007417     -0.059494
Li	      4.24386      4.18423      8.43071         0.003354      0.002437     -0.044135
Sc	      4.27349      4.16738      4.32988        -0.018221     -0.084420     -0.023024
V	      2.18177      8.34959      6.32844        -0.020436     -0.015564     -0.101212
V	      4.22266      0.09600      4.26613         0.071940     -0.071073      0.060835
V	     10.53144      6.32801      8.51168         0.009467      0.132845     -0.121578
V	      2.12869      4.16473      2.14866        -0.170649     -0.059900     -0.015748
V	      6.31651      8.30133      6.34330         0.044353     -0.055377     -0.081457
V	      6.33533      6.26872      8.49474        -0.018701      0.062876      0.144530
Fe	      6.42143     10.33770      8.50110        -0.035375      0.051224      0.052334
Co	      6.38532      6.28529     12.65678         0.010463      0.093500      0.028916
O	      2.04919      2.08711      2.02016         0.033390     -0.024295      0.067485
O	      4.28392      4.18312      2.13274         0.042093     -0.029284      0.093662
O	      4.21254      1.94165      4.29703        -0.019921      0.086982      0.010767
O	      6.39757      4.16842      4.13983         0.001201      0.019572      0.097451
O	      6.47619      2.06908      6.46601         0.000265      0.043653     -0.029492
O	      8.46406      4.17580      6.38117         0.110783      0.045752     -0.004569
O	      2.17615      4.13206      4.16520         0.040226     -0.018529      0.071720
O	      4.24300      6.22133      4.11845         0.014735      0.009431      0.080522
O	      4.11616      4.17257      6.32151        -0.003047      0.001241      0.077384
O	      6.29578      6.34998      6.49390        -0.044153     -0.021729     -0.080351
O	      6.41259      4.27027      8.48441         0.037084     -0.181116      0.018217
O	      8.50503      6.17284      8.48986         0.043323      0.081170     -0.014654
O	      2.17199      6.22326      6.46846        -0.069498      0.055510     -0.116665
O	      4.23096      8.38537      6.36523        -0.003466     -0.082269     -0.012726
O	      4.20163      6.26834      8.66944         0.034247      0.006830     -0.067112
O	      6.34502      8.35208      8.43989         0.028457     -0.079342      0.016909
O	      6.23724      6.32092     10.54776        -0.091970      0.013460     -0.140149
O	      8.45694      8.56357     10.73008        -0.009615     -0.039273      0.038835
