# total energy = -238.70001736 eV
 
CRYSTAL
PRIMVEC
-0.001064 6.353835 6.296100 
6.381119 0.016999 6.278121 
4.272245 4.242150 -0.006898 
PRIMCOORD
36 1
Li	      8.30811      2.18418      6.29965         0.029679     -0.003963      0.016239
Li	      6.42341      2.09162      4.39263        -0.017631      0.003421     -0.064117
Li	      6.37043      2.16917      8.19737        -0.023053     -0.017704      0.095626
Li	      8.46438      4.28673      8.18846         0.012003     -0.012139      0.010489
Li	      4.42242      2.05194      6.33827        -0.028758      0.024894     -0.021826
Li	      6.50046      4.05193      6.38727        -0.008383     -0.036915     -0.007129
Li	      8.47747      6.42756     10.53254        -0.020587      0.022686      0.014451
Li	      4.26346      6.37245      6.29025         0.017177     -0.017135      0.023249
Li	      6.41367      6.30356      8.29552        -0.030701     -0.050731     -0.045269
Sc	      6.37508      6.37738      4.27611         0.081205     -0.075846      0.046047
V	      2.13426      6.37429      8.32606        -0.031180      0.054032      0.060825
V	      4.28098      8.45492      8.33159         0.028259      0.072793      0.030331
V	      8.56236      4.23071      4.27349        -0.103025      0.090757     -0.053874
V	      4.25779      4.29693      4.20373         0.061161      0.040771      0.023804
V	      2.13631      4.25131      6.29773        -0.021244     -0.037793     -0.051499
V	      8.58200      8.34343      8.36229         0.099974      0.185016     -0.076048
Fe	      6.35160      4.27097     10.44481         0.124443     -0.098085      0.059714
Ni	      6.34019      0.12810      6.27581        -0.016155     -0.081546      0.061469
O	      2.30110      2.02438      2.10663        -0.043908     -0.048589     -0.049517
O	      4.31689      4.18700      2.18927        -0.035044     -0.014180     -0.034070
O	      4.24620      2.17666      4.07086         0.023719      0.007068      0.062413
O	      6.40225      4.27549      4.10551         0.001872      0.040163      0.009472
O	      6.38503      2.09875      6.29525        -0.008814      0.124871      0.012150
O	      8.52546      4.26187      6.20349        -0.094961     -0.021244      0.050742
O	      2.11710      4.24993      4.19196        -0.064012      0.006979     -0.032429
O	      4.30070      6.34411      4.18224        -0.000945      0.009483     -0.010952
O	      4.15867      4.28650      6.28692         0.010089     -0.001347     -0.014809
O	      6.37541      6.51026      6.27255         0.003951      0.068174      0.002950
O	      6.25001      4.25591      8.45108        -0.034222     -0.042161     -0.104926
O	      8.45908      6.61277      8.37366        -0.029174     -0.144625      0.005704
O	      2.08935      6.28097      6.35794         0.062744     -0.001499     -0.045967
O	      4.36049      8.50692      6.28175         0.001295     -0.042587     -0.017316
O	      4.21223      6.29158      8.46160         0.061508     -0.014766     -0.035893
O	      6.41233      8.56355      8.36434         0.044313      0.023790      0.083367
O	      6.27823      6.26319     10.49079         0.068533      0.026440     -0.065259
O	      8.62248      8.51065     10.36096        -0.120128     -0.038482      0.061859
