# total energy = -234.81603960 eV
 
CRYSTAL
PRIMVEC
-0.006657 6.439186 6.220788 
6.292154 0.023387 6.190205 
4.208740 4.286278 0.001810 
PRIMCOORD
36 1
Li	      6.29067      0.19494      6.28115         0.014457      0.009558     -0.019434
Li	      8.24740      2.19769      6.29386         0.003929      0.012460     -0.004615
Li	      2.06208      6.44494      8.15368         0.000525      0.018113     -0.014019
Li	      6.22091      2.12524      8.05838        -0.071552     -0.002202      0.129985
Li	      8.44482      4.35642      8.08543        -0.007424     -0.001305      0.022417
Li	      6.35377      4.18125      6.30040        -0.010694      0.003664      0.041255
Li	      6.33936      8.60699      6.29987        -0.011746      0.011085     -0.010515
Li	      8.34807      8.50367      8.20399        -0.016373     -0.043745      0.027426
Li	      6.35444      6.49966      8.17704        -0.008834      0.014324      0.047313
Sc	      6.30622      6.44633      4.16918        -0.067533      0.011879     -0.035673
V	      4.23525      8.62487      8.16101        -0.024221     -0.036454     -0.045699
V	      8.38883      4.27321      4.18069         0.024119     -0.015014     -0.106422
V	      6.27003      4.35301     10.23103        -0.014992     -0.018656     -0.186201
V	      8.34493      6.49410     10.30408         0.040830     -0.040492      0.011618
V	      4.22715      4.29464      4.11299        -0.023726      0.034897     -0.042251
V	      4.18861      6.36970      6.28464         0.033540     -0.014677      0.007202
Ni	      6.30666      2.19076      4.19808         0.107763     -0.041330     -0.067511
Ni	      8.44178      6.41837      6.34668        -0.126617      0.141887      0.001787
O	      2.34892      2.17878      2.09190         0.019922      0.002565      0.032303
O	      4.21445      4.18708      2.13682         0.029217     -0.003086      0.018809
O	      4.20285      2.17074      4.10587        -0.097499      0.014617     -0.056717
O	      6.28138      4.32631      4.10971        -0.014687      0.079122     -0.013624
O	      6.25342      2.16560      6.15539         0.083725      0.033158      0.099345
O	      8.36335      4.38076      6.09160         0.021481     -0.156354      0.042363
O	      2.09284      4.35880      4.15673         0.013351     -0.061232      0.005944
O	      4.19561      6.46055      4.14800         0.042836      0.011905      0.046826
O	      4.19050      4.35580      6.12646         0.005153      0.004497     -0.014482
O	      6.25329      6.43976      6.20928        -0.068743      0.015534     -0.097501
O	      6.32148      4.25418      8.49541        -0.014844      0.016199      0.168563
O	      8.36408      6.49461      8.36123        -0.009615     -0.038773      0.039459
O	      2.21126      6.42647      6.10971         0.001272      0.003822      0.063568
O	      4.24448      8.43856      6.18951         0.018517      0.003539     -0.009274
O	      4.17737      6.56604      8.33953         0.030850      0.031241      0.059065
O	      6.08250      8.59235      8.38065         0.021285      0.026887     -0.139557
O	      6.23475      6.30246     10.38163        -0.017133     -0.075466     -0.011478
O	      8.48022      8.57880     10.34956         0.093461      0.047832      0.009727
