# total energy = -249.39267232 eV
 
CRYSTAL
PRIMVEC
0.025053 6.340691 6.418712 
6.308106 0.009701 6.434013 
4.205173 4.237124 0.006674 
PRIMCOORD
36 1
Li	      6.27553      4.11863      2.30974         0.001871     -0.002284     -0.054549
Li	      4.40059      8.45844      8.69800         0.023248      0.007631      0.026060
Li	      4.11510      0.06717      4.16764        -0.038415      0.019451     -0.013903
Li	      6.20503      2.28765      4.17117         0.029101      0.048475      0.036645
Li	      0.04167      2.08968      2.13582        -0.029905     -0.020826     -0.005006
Li	      4.32672      4.14912      4.18627        -0.039644      0.034210     -0.072897
Li	      6.31418      4.23083      6.28449        -0.006001      0.033393     -0.112454
Li	      6.36781      8.41673      6.58400         0.000698      0.001308      0.073348
Li	      6.26318      6.44927      8.63457        -0.002494      0.005795      0.080994
Sc	      4.29855      6.28585      6.52784         0.053607     -0.052734      0.025559
V	      4.23263      4.23503      0.05061         0.021169     -0.018387      0.047183
V	      8.33514      2.16796      6.45941         0.031777     -0.016385      0.027287
V	      8.39708      4.24848      8.55953        -0.046004     -0.021189     -0.038176
V	      6.33836      6.25521      4.23821         0.022274     -0.019461     -0.029224
V	      4.20369      2.17492      6.36901        -0.042305      0.017593     -0.070067
V	      2.12519      6.30562      4.26507         0.083045      0.027428      0.007418
V	      8.35569      8.50555      8.60819         0.005209      0.009573      0.022220
Cr	      6.32101      4.24444     10.70469        -0.062486     -0.097354      0.008219
O	      2.08029      2.24033      2.04919        -0.019030      0.027484     -0.049295
O	      4.10270      4.22547      2.02466        -0.091013      0.027378     -0.112736
O	      4.12698      2.14775      4.41134         0.064417      0.009570      0.048049
O	      6.27944      4.36120      4.24610         0.000107     -0.053917      0.014293
O	      6.34640      2.02735      6.39091         0.015858     -0.102523     -0.005769
O	      8.43990      4.31592      6.47833        -0.001505     -0.046692      0.006736
O	      2.03400      4.19355      4.19930        -0.070179      0.059725     -0.011979
O	      4.19281      6.41049      4.31520        -0.106730      0.089148      0.044835
O	      4.23528      4.18973      6.51452         0.012114     -0.027623     -0.008950
O	      6.32728      6.37430      6.32365         0.048214     -0.000842     -0.030475
O	      6.31817      4.23939      8.71694         0.035646      0.005536      0.066847
O	      8.43260      6.36277      8.61215         0.025521     -0.061465      0.019055
O	      2.14760      6.39045      6.30880        -0.001573      0.061918     -0.007868
O	      4.12325      8.48967      6.34890        -0.036192      0.063285     -0.049861
O	      4.25975      6.25450      8.54395         0.002014      0.051019     -0.022095
O	      6.43183      8.44929      8.60603         0.009305     -0.016615      0.017631
O	      6.44870      6.23305     10.82360         0.028777     -0.029222      0.020461
O	      8.49830      8.41668     10.76724         0.079504     -0.012401      0.102466
