# total energy = -233.93196945 eV
 
CRYSTAL
PRIMVEC
0.026332 6.324392 6.363144 
6.339982 0.046725 6.343245 
4.257612 4.233918 0.000123 
PRIMCOORD
36 1
Li	      2.17073      8.38882      6.35522         0.009217      0.025756      0.006937
Li	      2.17836      6.31378      8.36971         0.057120      0.000131     -0.048885
Li	      6.37381      2.18414      4.21253        -0.000626      0.039382     -0.021490
Li	      4.25109      6.32309      2.13636        -0.015420      0.004427      0.024651
Li	      4.24103      4.28746      4.20613         0.001528      0.045123     -0.021336
Li	      4.24595      2.15349      6.34496        -0.013071      0.012502     -0.024446
Li	      2.21094      6.32142      4.29675         0.068435     -0.018475     -0.000044
Li	      2.16932      4.35028      6.35447         0.018207      0.058893     -0.026777
Li	      4.10624      6.35446      6.37104        -0.022166     -0.009265     -0.007109
Sc	      0.18348      6.44451      6.34904         0.027522      0.033119      0.031211
Ti	      6.32183      6.36519      4.26744        -0.059565      0.010310      0.046188
Mn	      4.30631      8.44049      8.42655         0.015470     -0.014997     -0.009898
Mn	      8.46175      4.23708      4.24046        -0.002715      0.087583      0.070024
V	      6.23823      4.17060      6.34994         0.008990      0.001125     -0.024534
Fe	      8.51426      4.32098      8.44713        -0.105717     -0.013645      0.062260
Fe	      4.21698      8.40405      4.34641         0.161070     -0.016627     -0.163756
Fe	      6.40184      6.40918      8.40953         0.031021     -0.035397     -0.014852
Cu	      8.37649      8.44154      8.46056         0.228517      0.009893     -0.083467
O	      2.16993      2.16708      2.30775         0.014828     -0.050961      0.047093
O	      4.15005      4.23666      2.07781         0.136988     -0.061927      0.053033
O	      4.10635      1.94772      4.25729        -0.036653     -0.001401      0.014699
O	      6.38376      4.31837      4.34835         0.035769      0.027592     -0.130405
O	      6.35417      2.23905      6.33545         0.010544     -0.156422      0.007044
O	      8.34898      4.25362      6.42863         0.042973     -0.018318     -0.054756
O	      2.09745      4.09729      4.20214        -0.005014     -0.074480      0.054755
O	      4.38455      6.41851      4.22731         0.140053     -0.066954      0.031724
O	      4.46063      4.22535      6.31029        -0.211737      0.000876      0.169081
O	      6.38883      6.24759      6.31053        -0.009389      0.018868     -0.080800
O	      6.44118      4.31216      8.41777         0.048843     -0.028890      0.197949
O	      8.39096      6.31605      8.50957         0.069920     -0.032870      0.033536
O	      2.12306      6.35885      6.35461        -0.043241      0.043118     -0.014334
O	      4.28270      8.53129      6.26317         0.006940      0.028061      0.149171
O	      4.36367      6.33858      8.48780        -0.102375      0.090704     -0.114196
O	      6.37044      8.38602      8.46228        -0.274837      0.067096      0.001742
O	      6.33106      6.29561     10.54821        -0.072348      0.053761     -0.007816
O	      8.58945      8.63819     10.60075        -0.159082     -0.057692     -0.152196
