# total energy = -230.20370689 eV
 
CRYSTAL
PRIMVEC
0.079830 6.234151 6.502142 
6.210605 0.085465 6.496046 
4.201229 4.212628 -0.003520 
PRIMCOORD
36 1
Li	      4.25747     10.37445      6.51542         0.043486     -0.017785      0.044245
Li	      4.27903      8.35496      8.55554         0.024882      0.010791      0.000695
Li	      8.34397      4.33688      8.63666         0.054051      0.028906     -0.014805
Li	      4.12181      4.27278      4.36658        -0.022683      0.039800     -0.033449
Li	      8.31600      6.33553      6.58023        -0.013933     -0.024582     -0.039720
Li	      6.27928      4.30017      6.61468         0.018176     -0.011575      0.069361
Li	      0.09868      4.18072      4.31769         0.012028      0.006028     -0.073899
Li	      2.11409      4.17561      6.46174        -0.023327      0.056597     -0.059028
Li	      6.32537      6.29511      8.53072         0.024097     -0.007797     -0.033400
Sc	      6.25539      6.45753      4.42867        -0.066136      0.042404     -0.092417
Ti	      6.16564      2.12453      4.44204        -0.179773     -0.105332      0.173514
Mn	      2.25812      8.36559      6.53884        -0.024730     -0.037336      0.064420
Mn	      8.48422     10.46444     10.91084         0.005548     -0.004273      0.054065
Mn	      4.21281      4.17429      8.58444         0.137848     -0.181904      0.011783
V	      6.16762      4.22767      2.17303        -0.382403      0.083574      0.045468
Co	      6.22971      2.19171      8.66225        -0.009186      0.015566     -0.110776
Cu	      2.16665      6.17057      4.29341         0.049277     -0.060181      0.021028
Cu	      4.26886      6.30086      6.54578         0.041574     -0.027385     -0.122808
O	      2.01087      2.02539      2.24706         0.017155     -0.044587     -0.046612
O	      4.32772      4.31442      2.11109         0.273047      0.031839     -0.015687
O	      4.25830      2.16185      4.33745         0.164950     -0.036463      0.065496
O	      6.23834      4.16860      4.20575         0.016344     -0.061994      0.041674
O	      6.36882      2.18275      6.36268         0.023141      0.004675     -0.199904
O	      8.37537      4.12539      6.47569         0.001799     -0.006946      0.009958
O	      2.12166      4.21311      4.31304         0.015267     -0.105930      0.045233
O	      4.18137      6.28164      4.06005         0.070011      0.014075     -0.054445
O	      4.17883      4.32777      6.70956        -0.032807     -0.032047      0.072206
O	      6.23898      6.31969      6.43934         0.090193     -0.027161      0.103978
O	      6.11616      4.11247      8.65563        -0.087031      0.003952     -0.032898
O	      8.51532      6.46990      8.50604        -0.024968      0.138194     -0.147790
O	      2.22821      6.37530      6.73260        -0.061263     -0.023649      0.121324
O	      4.16439      8.28641      6.51890         0.008104      0.062056      0.022233
O	      4.08197      6.13691      8.82029        -0.017140      0.019508      0.094618
O	      6.39297      8.47170      8.78419         0.010038     -0.031124      0.016628
O	      6.36946      6.44394     10.79033        -0.159107      0.133811      0.052726
O	      8.30633      8.31474     10.68014         0.003472      0.156277     -0.053012
