# total energy = -100.09746643 eV
 
CRYSTAL
PRIMVEC
-0.000001 2.176945 2.176799 
3.814043 -0.000025 0.000037 
-0.000076 9.782808 -9.781571 
PRIMCOORD
16 1
Li	      0.00012      2.83003      1.52296        -0.000014     -0.011396      0.012823
Li	      1.90762      2.77085     -0.59452         0.000570     -0.015427      0.013982
Li	      1.90785      4.51480     -2.33842        -0.001582     -0.011650      0.011623
Li	      1.90811      6.63924     -4.46110         0.000625      0.002910     -0.000727
Ti	      0.00153      7.21421     -7.21317        -0.000905     -0.197511      0.202403
Ti	      1.90837      9.81644     -7.63780        -0.000050      0.239132     -0.242754
Ni	      0.00066      4.60317     -0.25047         0.001607      0.020342     -0.020266
Ni	      0.00095      4.42632     -4.42569         0.000373      0.083924     -0.080523
O	      0.00130      7.52646     -5.34773         0.001038      0.216339     -0.221837
O	      1.90854      7.62770     -7.62605        -0.002108     -0.049148      0.046613
O	      0.00086      4.62869     -2.45076        -0.000262     -0.063255      0.059497
O	      1.90801      4.87108     -4.86960        -0.000426      0.055287     -0.057239
O	      0.00060      2.47436     -0.29851         0.000074     -0.082572      0.082767
O	      1.90771      4.66191     -0.30865        -0.000330     -0.000535      0.001266
O	      0.00133      9.40525     -7.22695         0.001215      0.046428     -0.044610
O	      1.90846     11.68428     -7.32943         0.000174     -0.232871      0.236982
