# total energy = -233.72817243 eV
 
CRYSTAL
PRIMVEC
0.000761 6.698478 6.160112 
6.174218 0.030295 6.126857 
4.128567 4.457449 0.009738 
PRIMCOORD
36 1
Li	      6.17592      0.16963      6.21120        -0.031960      0.016396     -0.000569
Li	      1.95125      2.07758      0.07563        -0.012130     -0.017019     -0.026254
Li	      2.05290      6.69760      8.04902        -0.003504     -0.028671      0.054711
Li	      6.21466      2.45476      8.08598         0.043612      0.015880     -0.020047
Li	      8.15252      4.48810      8.12816         0.038944     -0.001603     -0.021694
Li	      6.17950      4.50826      6.31334        -0.020810      0.034207     -0.028223
Li	      2.12900      4.50997      6.20770         0.010778      0.008085      0.016659
Li	      8.32091      8.76709      8.16920        -0.041919      0.037134     -0.012803
Li	      6.21294      6.67632      8.15502        -0.007217      0.004365     -0.031159
Sc	      8.22220      4.48352      4.11408        -0.088268     -0.037719      0.045965
Ti	      4.06438      8.96157      7.97540        -0.130829     -0.038905     -0.134538
Mn	      6.20283      8.95928     10.23971         0.019464      0.076851      0.012016
Mn	      8.19551      6.66023      6.27120        -0.038541      0.037786      0.004959
Mn	      6.23204      4.58466     10.22855         0.109154      0.030032     -0.021015
Mn	      8.25998      6.74850     10.23135         0.182474     -0.043283     -0.027929
V	      4.09221      4.42477      4.07581        -0.043142     -0.576506     -0.112019
Cu	      4.17837      6.64797      6.22190        -0.059520     -0.030780      0.314620
Ni	      6.13242      6.70515      4.07296        -0.081737     -0.072160      0.014325
O	      2.15435      2.23344      2.04517         0.232172     -0.041915     -0.281704
O	      4.10548      4.25865      2.19073        -0.008705      0.058429      0.411029
O	      4.03752      2.26807      3.99300         0.229586     -0.025445      0.035671
O	      6.07881      4.34738      4.07998         0.417709     -0.036411     -0.026322
O	      6.08113      2.23667      6.02029         0.003736      0.034088      0.001809
O	      8.21088      4.74473      6.12477         0.034859      0.063807      0.042426
O	      2.07717      4.39021      4.11763        -0.400480      0.122452     -0.010674
O	      4.11797      6.34391      4.18366        -0.187002      0.526822     -0.282282
O	      4.08850      4.17373      5.98978         0.039735     -0.201254     -0.138645
O	      6.15814      6.63236      6.09480         0.159948      0.014242      0.148453
O	      6.17055      4.47641      8.38589         0.031018     -0.001056     -0.003841
O	      8.27613      6.75549      8.31874        -0.006242      0.005594      0.071862
O	      2.22263      6.71987      6.03707        -0.148344      0.009666      0.010688
O	      4.17141      9.12316      6.12502        -0.019422      0.005923      0.286510
O	      4.13297      6.96878      8.19456        -0.035584      0.099423     -0.236196
O	      6.07452      8.99644      8.31683        -0.077207     -0.017335     -0.070911
O	      6.24627      6.90001     10.25482        -0.077409     -0.067189      0.020710
O	      8.37401      9.08957     10.29061        -0.033219      0.036068     -0.005589
