# total energy = -102.07888189 eV
 
CRYSTAL
PRIMVEC
-0.000747 2.122586 2.126994 
5.984121 0.043759 -2.174540 
-2.041369 6.748426 -4.633312 
PRIMCOORD
16 1
Li	      0.08000      2.41261      1.82281         0.018879     -0.009257      0.009253
Li	      1.84485      2.47867     -0.36868         0.000164     -0.000467     -0.004553
Li	      0.02275      4.13984      0.09724         0.019789      0.014027     -0.006403
Li	      4.02115      4.28687     -4.29199         0.010797      0.007015     -0.010815
Ti	     -0.19739      6.62958     -2.37611        -0.318961     -0.061356      0.060197
Ti	      2.00085      6.71015     -4.66738         0.134736      0.117584     -0.177658
Ni	      4.06503      2.42787     -2.43959        -0.050664     -0.114290      0.123815
Ni	      2.00470      4.36025     -2.24314        -0.100265      0.080826     -0.090220
O	      3.97469      4.44756     -2.33031         0.134506      0.122039     -0.129662
O	      3.91733      1.90492      0.20501         0.025551     -0.129347      0.192242
O	      1.90049      6.78795     -2.51536        -0.024070      0.051042     -0.043066
O	      2.03162      2.35062     -2.36122        -0.085376     -0.121349      0.118023
O	      3.92098      6.65623     -4.54021         0.118696      0.006124     -0.002920
O	     -0.00063      6.52692     -4.40515         0.045067     -0.065041      0.066004
O	     -0.00046      4.68539     -2.55777        -0.129198      0.112428     -0.128966
O	     -0.01892      2.16607     -0.05446         0.200350     -0.009979      0.024729
