# total energy = -242.62111238 eV
 
CRYSTAL
PRIMVEC
0.006989 6.518076 6.445599 
6.077724 0.023482 6.429044 
4.074413 4.356682 -0.006902 
PRIMCOORD
36 1
Li	      4.07002     10.83235      6.45226        -0.014010     -0.049452     -0.031035
Li	      6.08758      2.24627      4.32132         0.024241     -0.003681     -0.024971
Li	      6.08319      2.31872      8.66456         0.005838      0.014451      0.030797
Li	      1.93266      4.35467      2.28714         0.041549     -0.020310      0.006452
Li	      2.01397      2.25617      4.26041         0.015150     -0.002389      0.009332
Li	      6.11560      4.33563      6.57733         0.049583     -0.007121      0.037838
Li	      0.08530      4.26509      4.19435        -0.032781      0.016105      0.035205
Li	      2.04036      4.39235      6.33391        -0.052935     -0.013661     -0.025514
Li	      6.15521      6.32933      8.56121        -0.015914      0.013474      0.030266
Sc	      4.16254      6.56348      6.32443         0.026109      0.010421     -0.026848
Ti	      8.15321      6.53946      6.49712        -0.078613     -0.022568      0.072942
Mn	      8.01356      2.18883      6.41949         0.035866     -0.078398     -0.044526
Mn	      1.97867      6.52602      8.51222         0.015017     -0.104906      0.032194
Mn	      4.12273      8.68571      8.60406         0.033688     -0.003992     -0.058720
Mn	      4.05758      4.38201      4.25376        -0.013662      0.013491     -0.021001
Mn	      4.12443      4.37179      8.63826        -0.068477      0.007248     -0.021757
V	      4.12100      0.04046      4.36225         0.039108     -0.088913     -0.038378
Co	      1.96442      6.44812      4.30164        -0.026279      0.043009      0.022177
O	      1.98486      1.95543      1.96026        -0.038933     -0.054970      0.060743
O	      4.00583      4.25855      2.32782         0.033025      0.085577     -0.027377
O	      4.05833      2.05032      4.38744         0.024909      0.061247      0.098495
O	      6.19554      4.40406      4.15044        -0.028339      0.008811      0.034752
O	      6.03912      2.19157      6.43258        -0.138290      0.046115      0.005266
O	      8.10662      4.54664      6.32228         0.018925      0.116861     -0.008722
O	      2.11477      4.41524      4.26474         0.069609     -0.015168     -0.021767
O	      4.05558      6.54526      4.32941        -0.069400     -0.020786      0.024773
O	      4.12386      4.28483      6.25543         0.000072     -0.024706      0.015178
O	      6.21138      6.59609      6.44262         0.185217     -0.021495     -0.017446
O	      6.00641      4.35274      8.60208        -0.018137     -0.004153     -0.031109
O	      8.09963      6.71374      8.45706         0.017651     -0.060507     -0.227325
O	      2.02883      6.46539      6.44332         0.004663      0.053681      0.003325
O	      3.92498      8.62701      6.46878        -0.040208     -0.045974     -0.021781
O	      4.14039      6.43760      8.63678        -0.063146     -0.043336      0.067877
O	      6.21243      8.93857      8.56416         0.055796      0.062714      0.002070
O	      5.93610      6.54164     10.72024        -0.010693      0.041933     -0.031770
O	      8.07383      8.85200     10.87640         0.013800      0.091347      0.090366
