# total energy = -213.29145773 eV
 
CRYSTAL
PRIMVEC
0.020532 6.251692 6.304205 
6.176315 0.021178 6.303483 
4.130768 4.180536 0.000991 
PRIMCOORD
36 1
Li	      4.13381      4.19184      0.02883         0.028653      0.056947      0.049354
Li	      4.15601      2.10323      2.13305         0.019130     -0.005422     -0.010164
Li	      0.05286      2.16832      2.16379        -0.000834      0.024010     -0.032720
Li	      8.11556      4.15051      8.43660        -0.093769     -0.034182      0.057542
Li	      6.13343      6.29396      4.18599        -0.036016      0.030719      0.036174
Li	      6.16849      4.20611      6.45373        -0.029319     -0.049041      0.140900
Li	      6.21591      4.15647     10.36080         0.019798     -0.093199     -0.043691
Li	      4.24248      4.28186      8.36947         0.001733      0.015071     -0.025911
Li	      6.12382      6.14283      8.40233        -0.048558     -0.044003      0.005411
Sc	      8.23993      6.26408     10.38545         0.067404     -0.004953     -0.101476
Ti	      8.26769      6.22646      6.42243         0.345949      0.074053      0.541087
V	      2.12311      2.18596      0.09731        -0.136460     -0.038855      0.051747
Cr	      6.16883      8.36379      6.32567        -0.162432     -0.189576      0.177587
Cu	      6.18338      8.35692     10.47488         0.025777     -0.052178     -0.067234
Cu	      4.16102      4.16408      4.16662        -0.033086      0.090177     -0.091512
Ni	      6.19459     10.41276      8.41515        -0.017824      0.023282     -0.152668
Ni	      4.15009      6.27964     10.44163         0.014372     -0.086757     -0.079001
Ni	      4.20018      6.24376      6.33431         0.039297     -0.025922      0.046873
O	      6.17268      4.17763      8.43550        -0.042290      0.122507      0.137904
O	      2.05134      2.04799      1.88280         0.093883      0.134433     -0.174307
O	      4.29512      4.16914      2.20686        -0.253737     -0.036161     -0.056760
O	      4.17412      2.09585      4.30745        -0.054526      0.039312      0.028578
O	      6.19177      4.11816      4.12262         0.035420     -0.149786      0.215498
O	      6.15577      2.15370      6.28439        -0.081961     -0.100013      0.236618
O	      8.27597      4.21204      6.26847        -0.014749      0.059947      0.078903
O	      2.11112      4.18217      4.28941        -0.023254      0.019554      0.209282
O	      4.15158      6.15722      4.28021        -0.097453      0.093234     -0.083128
O	      4.06195      4.08902      6.24691        -0.225701     -0.157767      0.056173
O	      6.28692      6.35617      6.32239         0.279188      0.153148     -0.028556
O	      8.29581      6.23936      8.29953        -0.062195     -0.020617     -0.375053
O	      2.08567      6.27835      6.28492        -0.046243     -0.031430     -0.178145
O	      4.10205      8.32353      6.27213         0.040100      0.166813     -0.030739
O	      3.95621      6.26557      8.39923         0.274127      0.047796     -0.044505
O	      6.19889      8.45021      8.31499         0.040537     -0.047162     -0.490155
O	      6.16935      6.36820     10.44358         0.113601      0.122154     -0.100142
O	      8.19492      8.37470     10.69726         0.021438     -0.106132      0.096238
