# total energy = -102.20092505 eV
 
CRYSTAL
PRIMVEC
0.000185 2.126595 2.126598 
5.488340 5.312602 -7.439059 
-3.762583 2.599694 -2.600254 
PRIMCOORD
16 1
Li	      0.03530      0.38578     -0.38417         0.014658      0.003355     -0.000116
Li	     -1.89989      4.52096     -2.39309        -0.005329      0.006146     -0.003809
Li	      2.13476      7.34205     -5.21613         0.022454      0.007723     -0.005278
Li	      0.07910      2.12112     -2.11935         0.021331     -0.000064     -0.004943
Ti	      1.36662      5.11871     -2.98972        -0.415286     -0.047877      0.046303
Ti	      4.02824      4.94069     -4.94123         0.513802      0.105868     -0.103860
Ni	     -0.34559      5.40382     -5.40183        -0.009411     -0.009104      0.009206
Ni	     -1.83805      2.69161     -0.56399        -0.101380     -0.054117      0.052677
O	     -0.23669      7.56489     -5.43705         0.010188      0.094230     -0.091394
O	     -0.39600      5.50147     -3.37298         0.356919     -0.163549      0.158378
O	      1.77702      5.01671     -5.01497         0.085952     -0.047554      0.043800
O	      0.00235      2.31690     -0.18847         0.226808     -0.039245      0.037809
O	      1.41110      3.17466     -3.17258        -0.098419      0.142915     -0.146184
O	      1.98621      7.17606     -7.17634        -0.635554      0.029359     -0.024707
O	     -1.88618      2.52464     -2.52340         0.004636      0.146074     -0.146253
O	      3.99283      6.83840     -4.71163         0.008632     -0.174161      0.178371
