# total energy = -235.76701587 eV
 
CRYSTAL
PRIMVEC
0.009352 6.255995 6.415366 
6.200942 0.029890 6.395549 
4.131885 4.155117 0.021343 
PRIMCOORD
36 1
Li	      6.20199      6.29332     12.74278         0.034484      0.029367     -0.100293
Li	      4.12346      2.08670      2.16244        -0.019173     -0.012040      0.061812
Li	      8.25190     10.41296     10.69437         0.051333      0.004041      0.005600
Li	      6.20431      6.16244      4.30941        -0.019267      0.048090      0.003092
Li	      6.16804      4.22362      6.38837        -0.010208     -0.016756     -0.006383
Li	     10.23286      8.32375     10.70709        -0.005223     -0.015658      0.015102
Li	      8.30469      6.36220     10.62558        -0.003921      0.040069     -0.004606
Li	      4.15838      6.24086      6.33432        -0.014004     -0.032653     -0.112717
Li	      8.27752      8.32757      8.65269        -0.022523      0.004141      0.101958
Sc	      1.98129      4.21833      6.31297        -0.001737      0.114482     -0.135620
Ti	      2.08100      4.11919      2.19363         0.033279     -0.028934      0.067785
Ti	      6.04472      6.26598      8.64496        -0.141292      0.125920      0.337833
Cr	      2.10509      6.26054      8.56298         0.081127     -0.121660      0.051488
Fe	      8.34622      8.34486     12.69646        -0.250655      0.011819      0.036517
Fe	      4.20010      2.12215      6.34540         0.090131     -0.034382     -0.058481
Co	      6.23175      2.11248      4.30487        -0.131452      0.071033     -0.030984
Co	      4.18276      4.25248      4.28498        -0.224808     -1.379327     -0.051306
Co	      4.12486      6.26898      2.20088        -0.141274      0.159406      0.355690
O	      2.05961      2.08888      2.09714         0.426315      0.170365     -0.050268
O	      4.13230      4.10964      2.21696         0.035129      0.173316      0.928263
O	      4.16471      2.16481      4.38181         0.512259      0.602673     -0.109385
O	      6.19796      4.16082      4.16260        -0.883985     -0.289489      0.155642
O	      6.21272      2.12215      6.56635        -0.010772      0.047995     -0.597205
O	      8.29727      4.17695      6.61529        -0.030541      0.030926      0.109281
O	      2.09246      4.13989      4.16629         0.739916      0.121912      0.015007
O	      4.14011      6.11981      4.18533         0.131051     -0.164072      0.246640
O	      4.12455      4.12614      6.32897         0.127433      0.318560     -0.848191
O	      6.28057      6.29809      6.57481        -0.054521     -0.056418      0.066976
O	      6.30142      4.31105      8.60256         0.061962      0.054958      0.013285
O	      8.23497      6.15707      8.50816        -0.288324     -0.120120     -0.048598
O	      2.06921      6.29889      6.54434        -0.023202     -0.112813      0.053852
O	      4.09208      8.33968      6.35441         0.179189      0.018049      0.036295
O	      4.16426      6.25233      8.56041         0.157604      0.006893     -0.007808
O	      6.21165      8.34367      8.48018         0.005976     -0.086156     -0.143753
O	      6.19656      6.33835     10.50937         0.051418      0.271438     -0.194183
O	      8.24208      8.35484     10.78306        -0.441725      0.045023     -0.162335
