# total energy = -90.86624953 eV
 
CRYSTAL
PRIMVEC
0.000059 2.085405 2.140204 
6.079837 6.358362 -4.384448 
-4.023933 2.108301 -2.163342 
PRIMCOORD
16 1
Li	     -1.93336      4.32578     -2.35620         0.006636      0.005590     -0.023439
Li	      0.00880      6.45616     -2.37137        -0.004518      0.002881     -0.004620
Li	      1.96878      6.20898     -4.21172         0.000215     -0.015854      0.032216
Li	      2.04128      4.27339     -2.23743        -0.016364      0.006565     -0.004346
Mn	     -3.96709      2.10736     -2.14181         0.031204     -0.011328     -0.033752
Mn	      0.07066      4.23862     -0.06637         0.105105      0.024431     -0.012977
Ni	      4.02957      8.39973     -4.34853        -0.037268     -0.023056      0.023195
Ni	      3.99697      6.28497     -2.10955         0.062405      0.058370     -0.041820
O	      4.20492      6.34173     -4.41056         0.011816     -0.052286      0.052009
O	      0.03499      6.43463     -4.41542        -0.018240     -0.094917      0.093175
O	      2.01905      8.61426     -4.44220        -0.081586      0.017680      0.050417
O	     -2.01358      4.10268      0.09445         0.026859      0.093982     -0.077884
O	     -0.02925      4.04474     -1.99344        -0.000295     -0.058620      0.041574
O	      2.10003      6.34668     -2.23121        -0.073812     -0.010207      0.003209
O	      0.01776      2.08014     -0.12826         0.090268      0.053280     -0.091591
O	      1.87682      4.17475     -0.02152        -0.102425      0.003488     -0.005366
