# total energy = -231.21973768 eV
 
CRYSTAL
PRIMVEC
-0.005305 6.311209 6.285503 
6.302861 -0.004235 6.284513 
4.183160 4.188092 0.015970 
PRIMCOORD
36 1
Li	      0.19709      6.33525      6.18941        -0.000230      0.004451     -0.007622
Li	      2.02382      8.28000      6.26194         0.000743      0.078326      0.131471
Li	      2.12669      6.31193      8.22213         0.009797     -0.002334      0.056921
Li	      8.36088      4.16031      4.23512         0.018458      0.068850     -0.025385
Li	      6.37945      2.08723      4.31065        -0.067094      0.012690     -0.054321
Li	      6.29396      2.10013      8.27985        -0.037741     -0.025152     -0.007487
Li	      4.29568      2.02572      6.23531        -0.010142     -0.033982     -0.013555
Li	      2.06523      6.39740      4.32038        -0.002740     -0.121258     -0.096765
Li	      1.95547      4.38345      6.29575         0.005139     -0.034380      0.017992
Sc	      4.18357      4.17977      4.22805        -0.027825     -0.056723     -0.093665
Ti	      2.15959      4.10450      2.04481        -0.042264      0.080836     -0.137587
Ti	      6.33953      6.42460      8.51514         0.043141      0.230644      0.147381
Mn	      6.30723      4.12729      6.29390         0.140784      0.033571      0.206980
Cr	      4.13169      6.32439      6.31052         0.050428      0.061660      0.120423
Co	      4.17095      8.40173      8.36839         0.135937     -0.115214      0.031445
Co	      8.39090      8.35436      8.42525        -0.054777     -0.247686      0.334657
Ni	      6.29547      6.28590      4.24878         0.066045      0.017706      0.002268
Ni	      4.11077      8.37641      4.27823         0.195416      0.119653     -0.038210
O	      2.08653      2.22482      2.13670        -0.015202      0.099362     -0.086203
O	      4.04029      4.26044      2.10511        -0.082112     -0.052022      0.022248
O	      4.16068      2.13943      4.10652         0.082648      0.059998      0.077809
O	      6.26745      4.23172      4.38699         0.018511     -0.156191      0.020010
O	      6.29319      2.28474      6.29266         0.020616      0.044628     -0.053202
O	      8.21756      4.20719      6.41914        -0.035552     -0.069880     -0.012301
O	      2.05600      4.19544      4.05199         0.089562      0.063883     -0.006295
O	      4.23135      6.30425      4.29386        -0.145136     -0.062073      0.072568
O	      4.30539      4.22871      6.36974        -0.016582      0.036811      0.027370
O	      6.21376      6.15563      6.37646        -0.059066     -0.088657      0.021404
O	      6.27852      4.24621      8.30830         0.687158     -0.011236     -0.119407
O	      8.26913      6.29152      8.35619        -0.245520     -0.878711     -0.058055
O	      2.17406      6.30020      6.30097         0.061989      0.066403     -0.106900
O	      4.19104      8.30944      6.35079        -0.081897     -0.009692     -0.065539
O	      4.29542      6.16779      8.32929         0.225394      1.080677     -0.112132
O	      6.38164      8.31054      8.38161        -0.764945     -0.218455      0.033353
O	      6.26702      6.24463     10.35736         0.015901      0.085395     -0.177094
O	      8.43329      8.37377     10.26893        -0.178842     -0.061897     -0.052575
