# total energy = -101.07387252 eV
 
CRYSTAL
PRIMVEC
0.000070 2.145644 2.136018 
3.917736 0.001553 -0.001417 
0.006703 9.020673 -8.983685 
PRIMCOORD
16 1
Li	      0.01281      0.37551     -0.37186         0.004952     -0.017858      0.007389
Li	      1.96142      2.48022     -0.34080        -0.000388     -0.017593      0.018309
Li	      1.96012      4.16995     -2.03747        -0.000826      0.005301      0.011318
Li	      3.92186      6.79297     -6.74505        -0.003355     -0.005634     -0.014082
Ti	      1.95799      6.74182     -4.56142        -0.001545     -0.090358      0.073925
Ti	      2.02084      8.96619     -6.78365         0.096337      0.220988     -0.221326
Ni	      3.91912      4.32824     -0.05386         0.000222      0.083323     -0.084650
Ni	      3.91851      6.44037     -2.14735         0.001270      0.068124     -0.056072
O	      3.91771      6.73475     -4.54856        -0.001963      0.034735     -0.051533
O	      1.95593      6.72702     -6.68854         0.003702     -0.013657      0.015352
O	      3.91897      4.49813     -2.34295        -0.001269     -0.117604      0.122714
O	      1.95954      4.77571     -4.73497        -0.001141      0.145026     -0.131408
O	      0.00171      2.27113     -0.13282         0.000065     -0.096958      0.088437
O	      1.96022      4.41899     -0.14073         0.000281     -0.009437      0.017898
O	      3.89737      8.79370     -6.61522        -0.108121     -0.004305      0.013651
O	      1.95381     10.84217     -6.52533         0.011779     -0.184094      0.190077
