# total energy = -247.87841007 eV
 
CRYSTAL
PRIMVEC
-0.005784 6.378343 6.239819 
6.396801 -0.032172 6.265693 
4.253153 4.258392 -0.009668 
PRIMCOORD
36 1
Li	     10.51114      4.30894      6.25548        -0.033661      0.016066     -0.000237
Li	      6.35524      4.30425      2.17700        -0.010733      0.010667      0.012596
Li	      4.20302      2.16026      2.14739        -0.024311      0.018809     -0.015697
Li	      4.26680      0.04982      4.20038        -0.013857     -0.001171     -0.031220
Li	      2.13306      4.22380      2.09616        -0.018041     -0.026626      0.007660
Li	      2.23787      2.19822      4.10262         0.028083      0.039526      0.014952
Li	      4.19788      4.13687      4.13396        -0.004518     -0.011196      0.006175
Li	      8.52570      6.18517      6.25010        -0.020281     -0.017323     -0.006443
Li	      0.10518      4.26515      4.10218        -0.001595     -0.020337     -0.007579
Sc	      8.57664      2.22552      6.22748        -0.022959      0.000037      0.082961
Ti	      6.20011      2.14159      4.18534        -0.453218      0.150691     -0.008356
Ti	      4.29933      6.22929      2.18896         0.121153     -0.320448      0.074005
Ti	      4.29904      6.34601      6.23128        -0.015079     -0.016335      0.142257
Mn	      8.43415      6.25368     10.39852         0.028420      0.104502     -0.087640
V	      4.28530      4.26585      8.36452         0.061036     -0.151410      0.067933
Cr	      6.36408      8.49442      6.22283         0.131709      0.032340      0.098162
Co	      6.48213      4.25434      6.19455        -0.036056      0.023658      0.025396
Ni	      6.40709      6.33757      8.35547         0.058038     -0.041941     -0.043098
O	      1.94738      2.13549      2.05474        -0.121775     -0.024471     -0.021234
O	      4.21292      4.42653      2.06850         0.028564      0.349892      0.041360
O	      4.36706      2.10576      4.13784         0.375019      0.005733      0.007542
O	      6.37552      4.05025      4.19098         0.004141     -0.206718     -0.030344
O	      6.44333      2.06632      6.22608         0.039200      0.015908     -0.021015
O	      8.50537      4.20122      6.27412         0.023258     -0.075580     -0.025461
O	      2.10195      4.21552      4.29814         0.029663      0.018746      0.006829
O	      4.28816      6.36915      4.13977        -0.027205      0.023136     -0.032422
O	      4.18362      4.37120      6.25862        -0.022063      0.125417      0.034295
O	      6.29422      6.44102      6.26830        -0.098592      0.041644     -0.087043
O	      6.29947      4.21591      8.28137         0.013236     -0.119728      0.007147
O	      8.63502      6.48182      8.26972         0.073982     -0.070901     -0.060489
O	      2.31448      6.32369      6.29053         0.080205     -0.045390      0.011129
O	      4.29923      8.35881      6.27513         0.009563     -0.063382     -0.020791
O	      4.32244      6.29325      8.19786        -0.048751      0.020363     -0.183202
O	      6.48466      8.45767      8.34504        -0.105185      0.043501      0.090130
O	      6.34451      6.50648     10.37770        -0.001435      0.071870      0.109376
O	      8.43592      8.47548     10.41225        -0.025957      0.100449     -0.157630
