# total energy = -252.21265053 eV
 
CRYSTAL
PRIMVEC
0.037848 6.331650 6.545648 
6.358147 0.026477 6.557254 
4.242659 4.232469 0.014109 
PRIMCOORD
36 1
Li	      2.15316      2.11803      0.06806        -0.024365      0.032407      0.001267
Li	      4.26721      6.38393      2.34565         0.007892     -0.043613      0.018540
Li	      2.07653      4.25007      2.34960        -0.045388      0.077300      0.037827
Li	      6.23815      6.50026      4.44975         0.050275     -0.071014      0.035440
Li	      0.14799      4.10163      4.31171        -0.058859      0.060695     -0.045170
Li	      2.25822      6.21663      4.38823        -0.030657      0.021745      0.047033
Li	      2.13103      4.14438      6.44421         0.014420      0.001125      0.000980
Li	      4.34904      6.37024      6.37623        -0.003855      0.036985     -0.006869
Li	      6.39178      6.33920      8.60199        -0.056068      0.000447     -0.032238
Sc	      8.45988      4.26894      4.42194         0.015706     -0.063975     -0.114964
Ti	      0.13671      6.36934      6.52312         0.363492      0.020981     -0.171938
Ti	      4.09725      2.13512      2.07727        -0.080775     -0.048986     -0.010926
Ti	      8.52818      8.26550      8.71270        -0.005271     -0.493029      0.140542
Mn	      2.15921      6.35142      8.66253         0.047671     -0.019179      0.003405
Mn	      6.45471      8.39436     10.90156        -0.006047      0.014828     -0.009187
Mn	      4.14675      4.32336      4.40762         0.132201     -0.039273      0.106454
V	      6.37461      4.30135      6.64501        -0.013371     -0.009782     -0.138942
Co	      8.43714      6.37781      6.62765        -0.123776     -0.090642      0.063401
O	      2.27924      2.12984      2.15654         0.082956      0.075159     -0.010861
O	      4.23145      4.11847      2.05347        -0.062498     -0.004043     -0.002359
O	      4.25614      2.22072      4.21166        -0.052105     -0.022314      0.006934
O	      6.27799      4.21912      4.54746         0.040968      0.064744     -0.156919
O	      6.29053      2.08348      6.59373         0.002850     -0.050242      0.032379
O	      8.49909      4.24166      6.49045         0.084746      0.000972      0.067479
O	      2.26623      4.23422      4.38375        -0.035497      0.017501      0.010558
O	      4.26024      6.20821      4.37039        -0.029440      0.037430     -0.003705
O	      4.29082      4.28579      6.73328        -0.075645     -0.083731      0.056163
O	      6.44105      6.23194      6.57965         0.000639      0.044567     -0.042974
O	      6.24416      4.20544      8.63351        -0.010667      0.031014      0.108881
O	      8.46450      6.43448      8.74638         0.028441      0.493619     -0.041052
O	      1.97049      6.43218      6.53180        -0.323617     -0.017669     -0.062944
O	      4.29039      8.56485      6.72179        -0.027127      0.087467      0.104595
O	      4.32951      6.50938      8.82322         0.003101      0.066009     -0.014594
O	      6.49023      8.47013      8.71911         0.014938     -0.029315     -0.047125
O	      6.31846      6.30173     11.16171         0.038027     -0.054535      0.151007
O	      8.53459      8.56433     10.66876         0.136706     -0.043654     -0.080117
