# total energy = -241.83597672 eV
 
CRYSTAL
PRIMVEC
0.021169 6.262043 6.413838 
6.439506 0.011452 6.422924 
4.275786 4.163549 0.025103 
PRIMCOORD
36 1
Li	      2.26401      8.42027      6.40851         0.090345     -0.125921      0.033897
Li	      4.29803      8.31387      8.47020        -0.013018     -0.026876     -0.082077
Li	      8.62095     10.38721     10.74770         0.040148      0.014896     -0.041641
Li	      4.26514      6.24536      2.21088        -0.011624      0.010394      0.061974
Li	      2.17618      4.14835      2.13823         0.134413     -0.040985      0.043342
Li	     10.66903      8.42675     10.83189        -0.068302     -0.031499      0.001846
Li	      8.58426      6.21641     10.62433        -0.026052     -0.010717     -0.026864
Li	      6.31444      8.35250      6.40970        -0.073930      0.021623      0.010063
Li	      6.43806      6.28064      8.64629        -0.002042      0.018567     -0.006718
Sc	      8.56817      6.19276      6.50829        -0.069251      0.015972      0.080545
Ti	      2.13885      6.30683      8.43414         0.015708      0.155462     -0.586992
Ti	      6.56948      8.20280     10.72278         0.254911     -0.381797     -0.159577
Ti	      2.08755      2.19583      4.26742        -0.207205      0.271896     -0.016173
V	      4.43138      4.20365      8.53152        -0.096756      0.018814      0.074996
Cr	      4.31402      4.18135      4.29023        -0.163888      0.132215     -0.072575
Co	      4.26646     10.27752      6.43949         0.087248     -0.033815      0.049301
Cu	      6.60129      4.12034      6.61054         0.083334      0.027058      0.110446
Cu	      4.26234      6.35348      6.43200        -0.097503     -0.123940      0.110507
O	      2.18532      1.97086      2.29401        -0.050737     -0.096678      0.145386
O	      4.43692      4.15570      2.29128         0.019321      0.005207      0.068472
O	      4.31444      2.16114      4.31559         0.029149      0.003301     -0.026220
O	      6.33792      4.17835      4.18386         0.005761     -0.014521      0.084037
O	      6.40793      2.06384      6.23776         0.050077      0.239893     -0.010608
O	      8.68493      4.17100      6.52265        -0.275081      0.051372     -0.066266
O	      2.26485      4.07570      4.18703         0.112041     -0.290352      0.099060
O	      4.43608      6.21293      4.29347         0.270390     -0.132923     -0.134393
O	      4.16403      4.26432      6.44265         0.216765     -0.180103     -0.156392
O	      6.52228      6.26294      6.21324         0.231100     -0.254968     -0.116386
O	      6.21019      4.24295      8.65031         0.080995     -0.026534     -0.125724
O	      8.56055      6.40426      8.52927         0.034349     -0.050059      0.012317
O	      1.99764      6.26968      6.56959        -0.100686      0.029575      0.418496
O	      4.28705      8.28121      6.42068         0.060428      0.303970     -0.146651
O	      4.16179      6.19520      8.53061        -0.117272     -0.033440      0.151644
O	      6.56704      8.43675      8.70689        -0.074892      0.027297      0.098857
O	      6.42733      6.36693     10.66365        -0.039128      0.471760      0.043956
O	      8.45809      8.34713     10.59317        -0.329114      0.035856      0.076114
