# total energy = -242.94018042 eV
 
CRYSTAL
PRIMVEC
0.009224 6.318378 6.378621 
6.235556 0.021959 6.365693 
4.177057 4.223357 -0.005425 
PRIMCOORD
36 1
Li	      4.20274      4.18989      0.07669         0.043655     -0.054256     -0.030862
Li	      4.21374      8.44578      8.43536         0.021088     -0.025847     -0.000899
Li	      6.20511      2.19156      8.46040        -0.043653      0.030968     -0.003187
Li	      4.10588      4.28356      4.39052        -0.018281     -0.000423     -0.024952
Li	      4.18144      2.39069      6.40775        -0.018198      0.012174      0.023649
Li	      6.09020      4.22052      6.50539         0.030929      0.035807     -0.033565
Li	      6.26685      4.16031     10.51357        -0.006557     -0.000337     -0.029343
Li	      2.19290      4.23999      6.45856        -0.088102      0.045579     -0.001779
Li	      4.20335      4.24319      8.30146         0.006846      0.009619      0.083375
Sc	      6.13859      6.33633      4.34696         0.210219      0.085927      0.069662
Ti	      2.19596      8.37072      6.45161         0.454715     -0.320613     -0.135245
Ti	      6.16474      2.15226      4.30355        -0.160495      0.202076      0.093902
Ti	      8.41819      4.32457      8.44519         0.097679      0.389547      0.265191
V	      8.38559     10.52928     10.64479        -0.213521     -0.015923     -0.036530
Cr	      6.24418      6.35802      8.42271        -0.000644      0.009914     -0.182411
Fe	      2.17689      6.26970      4.24073         0.339819     -0.024430      0.009504
Cu	      4.15860      6.24381      6.38731         0.007188      0.124470     -0.060032
Ni	      6.16485      4.16104      2.10141         0.033065      0.000295     -0.092196
O	      2.06551      2.15213      2.03697         0.021955      0.078206     -0.067806
O	      4.07571      4.21701      2.06220        -0.286090     -0.006633     -0.010876
O	      4.21003      2.00488      4.34735         0.239954      0.051804      0.031326
O	      6.26308      4.15689      4.15742         0.038095     -0.142689      0.175630
O	      6.32265      2.12050      6.19895         0.074279     -0.027689     -0.210217
O	      8.38336      4.05800      6.38131        -0.021871     -0.071716      0.065257
O	      2.09999      4.15098      4.04855         0.049437     -0.174945     -0.138978
O	      4.19895      6.34836      4.10710        -0.506654     -0.032060     -0.202912
O	      4.13839      4.32598      6.36987         0.053113     -0.130648     -0.020440
O	      6.21066      6.37851      6.39894         0.071026     -0.016852      0.165850
O	      6.39980      4.36554      8.45214         0.057322     -0.023459     -0.033128
O	      8.28593      6.26836      8.41509        -0.007621     -0.248831     -0.160420
O	      2.06067      6.38130      6.43011        -0.127446      0.188990      0.049305
O	      4.05934      8.29815      6.36696        -0.400571      0.155841      0.018320
O	      4.21207      6.31240      8.71760         0.075228      0.002376      0.087486
O	      6.24194      8.41731      8.66267         0.001944     -0.149315      0.104831
O	      6.29208      6.46100     10.49502         0.099053      0.009025      0.131966
O	      8.27454      8.50630     10.76049        -0.126906      0.034048      0.100522
