# total energy = -248.14880178 eV
 
CRYSTAL
PRIMVEC
-0.007462 6.341738 6.324105 
6.390029 -0.023367 6.340205 
4.241329 4.219715 0.003087 
PRIMCOORD
36 1
Li	      0.18975      6.34471      6.38928         0.062897      0.006135     -0.045766
Li	      2.06161      6.35038      8.31383         0.000054      0.007518     -0.060701
Li	      4.24094      6.21166      2.22192         0.015273     -0.042054      0.004933
Li	      6.26806      6.37241      4.26686         0.002937      0.013831      0.027201
Li	      4.11823      4.39215      4.25283        -0.022956     -0.033073     -0.005352
Li	      8.43217      6.42889      6.39354        -0.018449     -0.011800     -0.032153
Li	      2.27955      6.17891      4.33045        -0.013622     -0.009482      0.008405
Li	      2.23838      4.38952      6.22191         0.004051      0.061683     -0.037164
Li	      4.14547      6.20221      6.21311         0.000848      0.014339     -0.010646
Sc	      4.34705      8.29161      4.29635         0.094916      0.065189      0.053269
Ti	      4.14049      2.25324      2.00042        -0.167642      0.206280     -0.048169
Ti	      8.48360      4.26856      4.30978         0.320179      0.430629      0.189779
Ti	      6.36308      2.06973      4.30400        -0.470175     -0.308601      0.262288
V	      6.40065      6.34262      8.34367        -0.037169      0.004484      0.122876
Cr	      6.31008      4.21510      6.31543         0.024548      0.019375      0.107507
Cr	      4.22491      4.20100      8.39307         0.011936     -0.032448      0.012497
Fe	      2.13636      8.27720      6.34479        -0.028302      0.170620     -0.015913
Ni	      2.16176      4.27660      2.13981        -0.076463      0.039742     -0.112804
O	      2.27028      2.14898      2.13613         0.366910     -0.034327      0.028679
O	      4.22175      4.10632      2.08684         0.043584     -0.299809      0.000041
O	      4.34735      2.03569      4.07531         0.110868     -0.117140     -0.177685
O	      6.46218      4.13104      4.30882         0.152394     -0.148476     -0.010598
O	      6.33568      2.14046      6.20712         0.008618      0.094818     -0.271522
O	      8.41230      4.13670      6.26789        -0.142011     -0.027974     -0.194342
O	      2.07939      4.22663      4.15062        -0.009615     -0.011576      0.076400
O	      4.25638      6.36528      4.19317         0.013931      0.002853     -0.005549
O	      4.32864      4.20453      6.43472         0.017956     -0.002028      0.032937
O	      6.37914      6.18957      6.42998        -0.018054     -0.097525     -0.029786
O	      6.30021      4.23029      8.39015        -0.078474     -0.005929     -0.036847
O	      8.36975      6.39502      8.45266        -0.002413      0.102317     -0.013236
O	      2.12905      6.37680      6.32654         0.048833     -0.217554     -0.004595
O	      4.30519      8.45378      6.41915         0.010512      0.039985      0.289643
O	      4.32771      6.32541      8.57599        -0.013781     -0.026500      0.053385
O	      6.38582      8.43930      8.53121         0.032482      0.011403      0.080084
O	      6.28011      6.36512     10.50125        -0.128254      0.008770     -0.088769
O	      8.44765      8.52811     10.45547        -0.116347      0.126327     -0.148326
