# total energy = -252.12923755 eV
 
CRYSTAL
PRIMVEC
0.031025 6.394779 6.239051 
6.373367 -0.009131 6.278742 
4.268280 4.309007 -0.024971 
PRIMCOORD
36 1
Li	      2.18372      8.49521      6.27168        -0.014188     -0.021024     -0.023566
Li	      2.15988      4.30122      2.06781         0.035467      0.027009     -0.033846
Li	      6.39696      6.46403      4.32966         0.000465      0.018087      0.022450
Li	      4.13192      4.36609      4.35898        -0.080899      0.034026     -0.031618
Li	      8.37606      6.58724      6.23952         0.020552     -0.008033     -0.007544
Li	      6.24168      4.47033      6.23198         0.005516      0.037581     -0.039388
Li	      2.27574      6.30121      4.20834         0.002150     -0.062448      0.058620
Li	      2.28816      4.15416      6.20097        -0.044321     -0.025174      0.021107
Li	      4.39142      6.24769      6.16210         0.034576      0.009317      0.013418
Sc	      6.39280      2.15694      4.25270        -0.064165      0.021745      0.018727
Ti	      8.46165      4.34167      4.28753        -0.093329      0.145408      0.379548
Ti	      4.27881      6.46438      2.08042        -0.081023      0.016359      0.016630
Ti	      0.17974      4.14273      4.19234         0.419832     -0.113394      0.000593
V	      0.08423      6.39371      6.22202        -0.083298      0.016041     -0.000562
Cr	      2.14780      6.41399      8.29658        -0.002773     -0.053154      0.042923
Cr	      4.28313      4.25552      8.23712         0.003682     -0.024484     -0.043802
Fe	      4.21552      8.54010      8.21720         0.024305     -0.006018      0.055937
Fe	      6.48032      6.38785      8.15293         0.046989      0.000519      0.276256
O	      2.00226      2.05096      2.07965        -0.099114     -0.055686     -0.017886
O	      4.33784      4.36466      2.06106         0.019045      0.067579     -0.008159
O	      4.31528      1.97502      4.06769         0.049202     -0.181402      0.045010
O	      6.52500      4.24137      4.12779         0.160251     -0.024788     -0.071839
O	      6.39226      2.02893      6.29544         0.039430     -0.014336      0.056606
O	      8.60283      4.28905      6.13338         0.028384     -0.006419     -0.361547
O	      1.99469      4.29071      4.13040        -0.453205     -0.050647      0.001045
O	      4.24750      6.51215      4.12180         0.030865      0.177420     -0.079683
O	      4.28158      4.26220      6.30799         0.011740      0.007195     -0.026708
O	      6.40322      6.42260      6.27141        -0.034829      0.022610     -0.417048
O	      6.33066      4.19907      8.40432         0.011180     -0.220039      0.104501
O	      8.66573      6.52678      8.35267         0.280944      0.035214      0.055655
O	      2.01259      6.41291      6.32810         0.027878      0.016802     -0.029455
O	      4.23400      8.67305      6.16694        -0.056627      0.021566     -0.149622
O	      4.19041      6.32167      8.38386        -0.129643     -0.011964      0.050880
O	      6.50046      8.64724      8.35273         0.003375      0.167294      0.045672
O	      6.31082      6.37330     10.35709        -0.043030     -0.043806      0.081424
O	      8.56818      8.69571     10.33393         0.024616      0.081046     -0.004727
