# total energy = -211.07746282 eV
 
CRYSTAL
PRIMVEC
-0.002127 6.257789 6.252859 
6.299324 -0.016318 6.267111 
4.197764 4.179644 -0.008945 
PRIMCOORD
36 1
Li	      4.20036     10.31193      6.22056        -0.033220      0.007009      0.007136
Li	      2.26350      8.28048      6.17727        -0.006529      0.025356     -0.043852
Li	      8.34893      4.19379      8.33337        -0.028771      0.009217     -0.040795
Li	      4.15376      4.20094      4.22217         0.007904      0.036383      0.039688
Li	      6.29835      4.19620     10.44181        -0.011043     -0.006189     -0.004926
Li	      2.09824      4.21612      6.29899         0.014648     -0.043142      0.004663
Li	      4.08605      6.36133      6.22801         0.063504      0.008623     -0.036251
Li	      8.38633      8.31347      8.32096         0.028060      0.006699      0.013997
Li	      6.36708      6.20610      8.43436         0.001808     -0.087176      0.000011
Sc	      4.13125      6.20988      2.11727        -0.034358     -0.017775      0.060765
Sc	      6.24580      4.20899      6.31459        -0.077598      0.042523      0.052994
Cr	      6.27814      2.07651      4.17318         0.062299      0.089406     -0.199426
Cr	      2.10665      2.26366      4.18957        -0.058363     -0.142973     -0.017459
Cu	      2.11898      6.21556      8.25943         0.072796     -0.015642     -0.054526
Cu	      4.21932      8.35574      8.25184        -0.023343     -0.052389      0.052546
Cu	      8.32965      6.28615     10.51443         0.076918      0.006174     -0.043682
Ni	      4.23219      6.23235     10.40572         0.036738     -0.148412      0.094833
Ni	      8.38415      6.26396      6.27958        -0.064411     -0.005739      0.000925
O	      2.10510      6.25983      6.21334        -0.080583      0.039907     -0.100494
O	      4.19486      8.32646      6.33667         0.053909      0.035448     -0.241717
O	      4.13460      6.32341      8.40931        -0.165830      0.043628     -0.150285
O	      2.14649      1.99320      2.23919        -0.004608      0.028015      0.093265
O	      4.31008      4.10541      2.05177         0.039301      0.122553      0.028566
O	      4.19616      2.05558      4.17065        -0.097397      0.097511     -0.034854
O	      6.35940      4.17482      4.12886        -0.084815     -0.003714      0.061692
O	      6.21617      2.10776      6.20705         0.002766     -0.015890      0.003791
O	      8.38858      4.30630      6.15209        -0.035952     -0.109920      0.170803
O	      2.13211      4.02866      4.12679        -0.023976      0.148126      0.025755
O	      4.34043      6.25434      4.16367        -0.003054      0.024859      0.024855
O	      4.19338      4.01166      6.27283         0.045311      0.097298      0.019076
O	      6.37660      6.26398      6.06583         0.011333      0.042250     -0.091524
O	      6.32170      4.08487      8.30040         0.004105     -0.046700      0.037415
O	      8.40383      6.19333      8.43549         0.003196      0.026673      0.061024
O	      6.20155      8.41818      8.41184         0.116046     -0.075305      0.131477
O	      6.28370      6.35986     10.41144         0.161139     -0.009855      0.016968
O	      8.25265      8.34499     10.42831         0.032069     -0.156837      0.057547
