# total energy = -222.13973924 eV
 
CRYSTAL
PRIMVEC
0.020866 6.260639 6.296750 
6.261737 0.036795 6.280485 
4.194618 4.182978 0.004663 
PRIMCOORD
36 1
Li	      8.33891      2.21734      6.27720        -0.027099      0.072677      0.015792
Li	      4.10462      2.16232      2.16490        -0.042075      0.039696      0.037662
Li	      8.33470      4.23120      4.29073         0.005217      0.028454      0.012678
Li	      6.25225      2.16617      8.36224         0.032307     -0.066679     -0.021463
Li	      2.11065      4.12553      2.11618         0.042908     -0.028630     -0.042936
Li	      2.12028      2.12273      4.18230         0.058458     -0.027934     -0.034069
Li	      4.14129      4.20019      4.14001         0.015474      0.019188     -0.072676
Li	      6.37962      4.13971      6.34837         0.136321     -0.095993      0.081758
Li	      2.20190      6.22952      4.16911        -0.046906     -0.037867     -0.029699
Sc	      6.34352      8.41279     10.48410        -0.037147      0.018629      0.124266
Sc	      6.30155      6.18806      8.40680        -0.004729     -0.008582      0.088730
Cr	      2.06130      0.15318      2.10481        -0.124351      0.389721      0.029085
Cr	      4.17707      2.11819      6.24258         0.067110      0.013482     -0.024950
Fe	      4.11737      4.14683      0.07057         0.046435     -0.075013     -0.024498
Co	      2.08730      4.18113      6.27248        -0.211758      0.048127      0.077562
Co	      4.18644      6.28334      6.23615        -0.067987     -0.166258     -0.547045
Ni	      4.20637      8.32078      4.20633         0.000496      0.220033      0.157514
Ni	      4.22665      4.16446      8.38895        -0.031962      0.025667     -0.028652
O	      2.10500      1.93374      2.03462        -0.021262     -0.189907     -0.009427
O	      4.30005      4.20303      2.01962         0.031721      0.043410      0.300973
O	      4.23699      2.12749      4.27176         0.016798      0.032535      0.019884
O	      6.31598      4.18425      3.97628        -0.031576     -0.036040     -0.051313
O	      6.20476      2.06543      6.24120         0.011924      0.164759     -0.113949
O	      8.44458      4.28233      6.31290        -0.266953      0.058654     -0.044162
O	      1.99833      4.18603      4.39077         0.052575     -0.016891     -0.002493
O	      4.17539      6.34872      4.41568         0.034157     -0.363290     -0.080501
O	      4.02637      4.21542      6.30335         0.137618     -0.328868     -0.196391
O	      6.32337      6.40833      6.29560        -0.117008     -0.119059      0.041350
O	      6.26852      4.19239      8.39747         0.115405      0.037246     -0.046541
O	      8.33472      6.32115      8.27651        -0.020576     -0.187886      0.029738
O	      2.05310      6.11340      6.42456         0.212178      0.013991      0.012798
O	      4.33904      8.33619      6.29305        -0.005495      0.305605      0.067601
O	      4.14111      6.26028      8.17483         0.080438      0.165296      0.375829
O	      6.30441      8.42194      8.32234        -0.003986     -0.006246     -0.052140
O	      6.28930      6.26414     10.51507         0.047671      0.107002     -0.136726
O	      8.44178      8.38717     10.46378        -0.084340     -0.049030      0.086410
