# total energy = -230.46174655 eV
 
CRYSTAL
PRIMVEC
0.002144 6.197158 6.390042 
6.535551 0.047156 6.343565 
4.383714 4.128064 0.005392 
PRIMCOORD
36 1
Li	      6.32738      4.21793      2.19858         0.035149      0.023969     -0.005241
Li	      4.30170      2.24761      2.20324        -0.041914     -0.034016      0.013487
Li	      6.32395      2.23512      4.24297        -0.004654     -0.033914     -0.022249
Li	      8.79264      4.15903      8.33251        -0.035859      0.035000     -0.028472
Li	      2.27869      2.08498      4.22367         0.000876      0.041393     -0.031687
Li	      4.59674      4.03702      4.15930         0.034098      0.052103      0.033485
Li	      4.32156      2.20444      6.27170        -0.046422     -0.007891     -0.017003
Li	      6.59547      4.09807      6.21933        -0.014944     -0.007715     -0.044287
Li	      4.39018      4.10599      8.43074         0.006037     -0.029734      0.046595
Sc	      8.54222      4.26579      4.16696         0.040931     -0.072268      0.023861
Sc	      2.23428      6.14742      4.21670        -0.010807     -0.014144      0.015407
Mn	      2.16833      2.07160      0.06935         0.124893     -0.097968     -0.138162
V	      4.43868      8.22420      4.32755        -0.079564     -0.082819      0.022519
V	      4.41251      6.03145      6.47195        -0.118611      0.200275     -0.200965
V	      6.59100      6.23005      8.45480         0.134651     -0.106911      0.226228
Co	      6.53891      8.25691      6.45670        -0.005552     -0.037879     -0.036267
Cu	     10.79861      4.28214      6.44508        -0.057955      0.016521     -0.072750
Cu	      6.58466      2.15989      8.42168        -0.006779     -0.059954      0.013885
O	      2.11082      2.09745      1.93527        -0.000018      0.019435      0.052131
O	      4.33052      4.29452      2.02096         0.025569      0.004880      0.125806
O	      4.34736      2.08986      4.26191        -0.010366      0.074660     -0.049933
O	      6.59439      4.17483      4.16179         0.002853      0.011133     -0.022165
O	      6.81890      2.04435      6.21977        -0.023832      0.102898     -0.119613
O	      8.68889      3.99366      6.28550        -0.097137      0.038327     -0.036234
O	      2.02276      4.13057      4.45857         0.031624     -0.008231      0.211513
O	      4.32800      6.23794      4.44392        -0.022705     -0.008892      0.173789
O	      4.38416      4.27514      6.39246        -0.036959     -0.203607      0.029836
O	      6.41714      6.23181      6.49300        -0.096827      0.090917      0.072708
O	      6.57036      4.23314      8.57587        -0.026929      0.191815     -0.002442
O	      8.64727      6.23187      8.50523        -0.058355     -0.040057      0.004976
O	      2.37912      6.22799      6.41950         0.140511     -0.091114      0.044391
O	      4.22582      8.17423      6.43288         0.023422     -0.022067      0.033400
O	      4.56351      6.16038      8.43802         0.123993      0.001493     -0.072461
O	      6.58592      8.06473      8.45372        -0.032125      0.068884     -0.137360
O	      6.59686      6.17146     10.57453         0.020000     -0.025022     -0.200069
O	      8.92151      8.28178     10.74885         0.083708      0.010499      0.093344
