# total energy = -102.14128743 eV
 
CRYSTAL
PRIMVEC
-0.000003 2.074955 2.074833 
8.817686 -4.231969 4.232060 
2.129287 4.134483 -2.059271 
PRIMCOORD
16 1
Li	      0.31913      1.99324      2.15594        -0.015937     -0.014996      0.014613
Li	      2.38807      1.90917      0.16568        -0.040832      0.018518     -0.021839
Li	      4.18894      0.10856      4.03949         0.038400     -0.016445      0.018792
Li	      6.25744      0.02302      2.04959         0.013915      0.013894     -0.012006
Ti	      8.53937      2.02260      2.12510        -0.628107      0.072135     -0.071431
Ti	      8.98200     -0.10423      4.25288         0.659157     -0.076965      0.074501
Ni	      2.29634     -0.03006      2.10417        -0.125725     -0.030223      0.026255
Ni	      4.28120      2.04791      2.10080         0.121147      0.030632     -0.026863
O	      6.76417      1.99881      2.14905         0.607803     -0.003250      0.003212
O	      6.70574     -0.17493      4.32323         0.018457     -0.103199      0.094949
O	      8.76064     -0.07845      2.15160        -0.002725      0.002730     -0.001449
O	      8.68717     -2.04142      4.11394        -0.021512      0.106748     -0.096070
O	      1.94047      4.15218     -0.00362        -0.629440      0.004626     -0.005775
O	      2.19521      1.99042      2.15879        -0.055726      0.108224     -0.113328
O	      4.35296      2.03877      0.03537         0.001757     -0.000856      0.000940
O	      4.38155      0.02740      2.04628         0.059367     -0.111572      0.115499
