# total energy = -238.83814118 eV
 
CRYSTAL
PRIMVEC
0.040340 6.286779 6.280244 
6.496542 0.017584 6.302655 
4.329739 4.204591 0.013151 
PRIMCOORD
36 1
Li	      8.67266      8.43459     12.49834         0.009214      0.000308     -0.080277
Li	      6.62287     10.33885      8.45980         0.053857      0.052373      0.063444
Li	      4.46481      8.36918      8.39071        -0.060161      0.027330      0.016631
Li	      8.63557     10.45192     10.44748        -0.044059      0.034787      0.076504
Li	      6.67649      8.44913     10.42861         0.140520     -0.016376      0.015848
Li	      6.48853      2.22970      8.38415         0.034975     -0.042120      0.046079
Li	      8.58972      4.23034      8.40244        -0.031694     -0.021326     -0.066388
Li	     10.78135      8.39076     10.45510        -0.099410     -0.041266     -0.002505
Li	      8.64154      8.43696      8.50603         0.033501     -0.031159      0.006977
Sc	      4.26277      6.38913      6.35934        -0.113155     -0.140854      0.036394
Sc	      6.45559      6.34999      8.55448        -0.050212     -0.025998      0.184201
Mn	      4.39571      4.16774      4.01337         0.062669      0.020162     -0.076312
Mn	      8.70773      6.35213     10.43327        -0.032427      0.012398     -0.084868
V	      4.25155      4.15597      0.04840        -0.164191     -0.209594      0.177950
V	      6.55951      4.16916      6.34022         0.073799     -0.513260      0.095674
V	      2.19301      2.11971      4.01033         0.113453      0.043868     -0.521153
Fe	      4.40426      2.11979      6.34205        -0.216871      0.027577      0.023939
Ni	      6.49541      8.41741      6.35049         0.113771      0.082467     -0.013092
O	      2.18658      2.10730      2.27559        -0.009286      0.038031      0.256930
O	      4.36786      4.21988      1.84751         0.114389      0.057187     -0.077086
O	      4.13907      2.10307      4.34233        -0.067037     -0.009425     -0.086536
O	      6.53383      4.33107      4.30310        -0.005020      0.033114     -0.075351
O	      6.37721      2.06465      6.28127         0.189694      0.624464     -0.050187
O	      8.69795      4.26187      6.31253         0.530454      0.127508      0.048646
O	      2.22785      4.20951      4.23739        -0.005596     -0.049234     -0.053494
O	      4.51061      6.30645      4.24874         0.037481      0.104487      0.010156
O	      4.46476      4.16407      6.31102        -0.541802      0.067874      0.040697
O	      6.51607      6.30860      6.30046         0.059872     -0.458845     -0.015433
O	      6.57247      4.24096      8.27094        -0.079497      0.208235     -0.010032
O	      8.62856      6.28843      8.41702        -0.009359      0.043289      0.059266
O	      2.15211      6.26240      6.17344         0.005107      0.145526     -0.009748
O	      4.37085      8.46223      6.30578        -0.077595     -0.069218     -0.043563
O	      4.40408      6.30718      8.35324         0.030822      0.010489     -0.029586
O	      6.50268      8.37541      8.37552         0.012243     -0.101060      0.137843
O	      6.50012      6.28106     10.64555         0.039207      0.017912     -0.040201
O	      8.71577      8.21018     10.48835        -0.047656     -0.049650      0.038635
