# total energy = -235.96580041 eV
 
CRYSTAL
PRIMVEC
0.008009 6.297250 6.463000 
6.312292 0.051098 6.419545 
4.219892 4.181406 0.022101 
PRIMCOORD
36 1
Li	      0.04043      6.23373      6.41982        -0.041389     -0.001183     -0.068274
Li	      6.35928     10.37834      8.58955        -0.016739      0.023038     -0.010637
Li	      4.33004      8.43106      8.51423         0.052275      0.035713     -0.034840
Li	      6.36154      8.40076     10.62533        -0.046357     -0.007536     -0.048115
Li	      2.13940      4.14127      2.20078         0.042819      0.043509      0.009668
Li	      8.31108      6.34770     10.74248        -0.058313     -0.023434      0.008299
Li	      6.27295      8.38890      6.56547        -0.008620     -0.011845     -0.016691
Li	      4.31619      6.33470      6.55676         0.026557      0.036297      0.036301
Li	      6.27217      6.40762      8.57913         0.008745     -0.061360     -0.018880
Sc	      4.19405      6.34710     10.65051         0.011356     -0.035220      0.015396
Sc	      8.38961      6.27147      6.49913         0.029992     -0.032960      0.028310
Mn	      0.07237      4.22211      4.36825        -0.036101      0.006438     -0.007382
Mn	      8.34423      8.42329      8.61141        -0.018541     -0.012395     -0.022443
V	      2.14065      8.22370      6.51297        -0.048309      0.179113      0.012651
V	      4.26089      6.25889      2.21120         0.026424      0.056895     -0.105476
V	      4.19463      4.26900      4.26321        -0.005197     -0.035354      0.007450
Ni	      2.13834      2.16638      4.30372         0.010960     -0.020009     -0.091834
Ni	      6.31024      4.25052      6.43977         0.038286     -0.047062      0.068416
O	      2.01686      2.14806      2.05612         0.034170     -0.014528     -0.021585
O	      4.21139      4.25236      2.37637         0.008878      0.015852      0.046223
O	      4.23711      2.19586      4.29677         0.064133     -0.008220      0.039419
O	      6.25515      4.28808      4.32624        -0.032584     -0.087880     -0.066308
O	      6.37483      2.16245      6.53029        -0.004371     -0.083525      0.049843
O	      8.39005      4.18006      6.41430         0.119687      0.025194     -0.062264
O	      2.23326      4.21157      4.29696         0.015806      0.126504      0.018514
O	      4.28960      6.33801      4.29104        -0.144093      0.037517      0.015986
O	      4.25766      4.19447      6.21199        -0.113263      0.055317      0.039518
O	      6.37083      6.27147      6.41580         0.032037      0.169942      0.057057
O	      6.16750      4.15402      8.64674         0.004433      0.024617      0.134760
O	      8.50488      6.42891      8.56340        -0.032462     -0.002602      0.025351
O	      2.07161      6.48709      6.48446        -0.037858     -0.296511      0.029659
O	      4.08124      8.40379      6.41149         0.084597     -0.021633     -0.047449
O	      4.19725      6.18115      8.62849        -0.012939      0.028785     -0.013847
O	      6.46700      8.39203      8.58026        -0.027586      0.010029      0.005725
O	      6.27729      6.17258     10.73748         0.012876     -0.046127      0.038858
O	      8.38130      8.45736     10.92268         0.060693     -0.025377     -0.051380
