# total energy = -241.63464770 eV
 
CRYSTAL
PRIMVEC
0.013332 6.280837 6.296666 
6.568743 0.012321 6.297099 
4.396379 4.204678 -0.008986 
PRIMCOORD
36 1
Li	      6.59163     10.45516      8.41022        -0.013649     -0.004397     -0.001510
Li	      4.46948      0.08300      4.25571        -0.006669      0.006863      0.013865
Li	      6.54459      2.07281      4.24018         0.059739      0.062528     -0.027715
Li	      4.42141      4.11268      4.25757        -0.004586     -0.005292      0.032106
Li	      4.43491      2.01181      6.24430        -0.001703     -0.001000     -0.009617
Li	      6.64990      4.20240      6.33147         0.031960      0.020567      0.038081
Li	      6.57568      4.31873     10.43064         0.004381      0.013517     -0.073235
Li	      8.55793      6.28474     10.46935         0.005857     -0.033745     -0.055034
Li	      6.58210      6.27715      8.47041        -0.037099     -0.058352      0.015619
Sc	      8.74101      8.45464     12.47654        -0.030023      0.021648     -0.042326
Sc	      8.75339      8.35256      8.48277         0.010411      0.024107      0.037219
Mn	      6.51979      0.08167      6.20717        -0.025456     -0.008525     -0.011621
Mn	      4.50149      2.14968      2.19344         0.040198      0.046763     -0.002499
Mn	      4.36327      6.28429      2.12701        -0.003800      0.009836      0.035413
V	      6.65993      6.15820      4.23241         0.024677     -0.078590     -0.094881
V	      4.39677      6.24235      6.22150         0.018572     -0.048195      0.046048
V	      2.21600      4.19242      6.22370        -0.006942      0.073147      0.048714
Cu	      8.69781      4.26897      8.46228        -0.074988      0.070625      0.044070
O	      2.11208      2.19326      2.18498        -0.045604     -0.149942     -0.043782
O	      4.53170      4.31241      1.90722         0.125479      0.047198     -0.071011
O	      4.21057      2.11214      4.21685        -0.066213     -0.016309      0.033625
O	      6.57336      4.38796      4.15843        -0.043405      0.069051      0.020503
O	      6.66874      2.05317      6.26640         0.004275     -0.021159     -0.016779
O	      8.79257      4.18974      6.42591         0.033601      0.032681     -0.097041
O	      2.17244      4.01959      4.22526         0.019800     -0.014893      0.103878
O	      4.55492      6.26306      4.35873         0.047893      0.075017      0.003166
O	      4.23831      4.28750      6.29609         0.000371      0.013481      0.026735
O	      6.46284      6.30843      6.20691        -0.003442      0.089796     -0.027386
O	      6.42336      4.03698      8.40145        -0.141271     -0.026115      0.031938
O	      8.89909      6.24779      8.46350         0.006868      0.079136     -0.018662
O	      2.39555      6.28777      6.21185         0.025331     -0.066211     -0.040721
O	      4.46780      8.41173      6.28864        -0.090937     -0.015233     -0.046532
O	      4.44886      6.29309      8.12725        -0.034266     -0.092699     -0.012514
O	      6.63401      8.38069      8.23721         0.138978     -0.032427      0.026897
O	      6.54949      6.32653     10.62993         0.003849     -0.056731      0.020561
O	      8.72537      8.48739     10.48482         0.027814     -0.026144      0.114430
