# total energy = -229.75043475 eV
 
CRYSTAL
PRIMVEC
-0.011257 6.463559 6.424669 
6.208746 0.031829 6.381213 
4.146644 4.287431 0.013543 
PRIMCOORD
36 1
Li	      8.26728      2.31365      6.45735        -0.009959      0.020186      0.006951
Li	      6.14392      4.35913      2.21257         0.053447      0.009110     -0.004276
Li	      4.05991      2.32206      2.16595         0.034155     -0.015942      0.030028
Li	      8.28679      4.33127      4.40946         0.040869     -0.022211     -0.028967
Li	      2.12716      4.17759      2.00801        -0.089762     -0.015799      0.011957
Li	      4.22600      4.17871      4.23410        -0.038890     -0.005661      0.016875
Li	      4.20845      2.04757      6.31716        -0.027244     -0.077700      0.030559
Li	      8.25611      6.47860     10.67291         0.013793      0.002083     -0.046463
Li	      2.04356      4.32857      6.37564        -0.030948     -0.048433     -0.019021
Sc	      4.14215      6.29168      2.06367        -0.095574      0.038555      0.011012
Sc	      2.21177      2.07942      4.25641        -0.095434      0.170098      0.142651
V	      0.03646      4.38030      4.33976        -0.076750     -0.039132     -0.039912
V	      3.94975      6.47652      6.41939         0.421037      0.117769     -0.052314
V	      6.21275      6.54622      8.48987        -0.025770     -0.000443     -0.063028
Fe	      4.11411      4.34755      8.53559         0.192806      0.029277     -0.006764
Co	      6.17563      2.21311      4.33044         0.009949      0.021465      0.023076
Cu	      6.30265      4.26693      6.30042        -0.042679      0.096013      0.001502
Ni	     10.26268      4.29051      6.42382         0.271672     -0.151718     -0.227268
O	      2.00312      2.14834      2.23902         0.056414     -0.062552     -0.014969
O	      4.12691      4.32231      2.07529         0.047999     -0.054902      0.235393
O	      4.16217      2.21168      4.29382         0.109284     -0.044158     -0.026125
O	      6.24248      4.31002      4.27578        -0.023608     -0.138914      0.034627
O	      6.24446      2.06119      6.39399         0.002308     -0.102061     -0.070197
O	      8.22449      4.30400      6.40222        -0.137435      0.028502      0.110344
O	      1.85329      4.27236      4.29859         0.121578     -0.021857      0.003822
O	      4.13926      6.56456      4.38935         0.010051      0.019081     -0.036939
O	      4.25919      4.49888      6.51702        -0.087401      0.045600     -0.201855
O	      6.07046      6.55349      6.54086        -0.020788      0.206449     -0.020865
O	      6.18518      4.49231      8.62678        -0.012043      0.037576     -0.045468
O	      8.20739      6.60250      8.50589         0.085946     -0.006453     -0.036208
O	      2.19913      6.40099      6.43264        -0.368062     -0.059457      0.059385
O	      4.08503      8.54886      6.30102        -0.012324     -0.087537      0.050183
O	      4.22648      6.40796      8.40745        -0.092201      0.041060      0.032968
O	      6.25277      8.40456      8.62128        -0.087863      0.061217      0.053651
O	      6.21255      6.39339     10.60440         0.027114      0.005480     -0.014437
O	      8.43335      8.62951     10.53097        -0.123684      0.005408      0.100094
