# total energy = -238.55842349 eV
 
CRYSTAL
PRIMVEC
-0.033122 6.436258 6.389024 
6.373004 0.000330 6.355809 
4.244155 4.264012 0.004723 
PRIMCOORD
36 1
Li	      6.29622      4.27546      2.26034         0.019924      0.049744      0.000014
Li	      4.23830      2.18671      2.25560        -0.031265     -0.038078     -0.000011
Li	      4.16124      0.12866      4.20447        -0.039033      0.023216     -0.100827
Li	      4.27322      6.31212      2.18012         0.013323     -0.051658      0.127025
Li	      2.25953      2.11457      4.15047         0.030638     -0.008491     -0.055720
Li	      4.23066      4.19157      4.19442        -0.040606      0.026809     -0.082547
Li	      4.23483      2.15769      6.24338        -0.031248     -0.102561     -0.015835
Li	      2.16411      4.27622      6.38120        -0.021539     -0.012817      0.025194
Li	      8.39106      8.54266      8.50909        -0.030463      0.051501      0.081910
Sc	      2.13728      2.12355      0.06827        -0.200712      0.139276      0.163310
Sc	      6.32547      4.29234      6.29158         0.448872     -0.138834     -0.018350
V	      2.17649      4.24266      2.16101        -0.103053      0.094664     -0.209121
V	      4.25000      6.36389      6.46486        -0.340106     -0.656485     -1.231550
V	      6.35003      6.49138      8.48679        -0.176974     -0.062155      0.226873
Fe	      4.25671      4.26566      0.07170         0.034567      0.030244     -0.082531
Fe	      6.17676      2.22873      4.16224         0.243743     -0.138000     -0.004982
Fe	      0.00622      4.25448      4.24299        -0.111938     -0.173227     -0.155544
Fe	      2.14169      6.39659      4.24853         0.220295      0.048479     -0.099647
O	      2.08262      2.25241      2.10904        -0.026252     -0.142802     -0.048654
O	      4.12704      4.31222      2.06592         0.203959     -0.027420      0.139881
O	      4.31004      2.12166      4.24432        -0.227521      0.048347      0.076042
O	      6.38902      4.18007      4.25191        -0.046392      0.104055      0.094987
O	      6.40963      2.17936      6.24534        -0.064163      0.062488      0.038883
O	      8.44570      4.22579      6.40683        -0.088531      0.052704     -0.114690
O	      2.02171      4.37970      4.22486         0.042367     -0.123751      0.243577
O	      4.16003      6.50154      4.42049         0.034262      0.071799     -0.570692
O	      4.26603      4.44240      6.37839        -0.148453      0.893027      0.024449
O	      6.24399      6.39315      6.40083        -0.218660      0.057187      0.183669
O	      6.42030      4.38841      8.53276        -0.047709     -0.091567      0.003597
O	      8.38247      6.32911      8.58781         0.126141      0.080422     -0.074903
O	      2.20314      6.42949      6.33693         0.102094      0.067342      0.207468
O	      4.20812      8.46860      6.28285         0.105217     -0.521756      0.184721
O	      4.29427      6.44394      8.29880         0.380842      0.093046      1.088772
O	      6.35560      8.43209      8.60768         0.100205      0.163158     -0.145142
O	      6.42354      6.39970     10.64991        -0.073927     -0.001564      0.096795
O	      8.55788      8.44444     10.63342        -0.037906      0.133658      0.003578
