# total energy = -103.26504804 eV
 
CRYSTAL
PRIMVEC
2.010709 4.188131 2.078455 
4.111778 -2.117292 -2.121002 
0.000495 4.224599 -4.230337 
PRIMCOORD
16 1
Li	      2.05388      4.23602      1.94437         0.038930      0.013388      0.026843
Li	      2.01067      2.22485     -0.09470        -0.025381      0.003627     -0.019893
Li	      2.03644      6.16687      0.04053         0.024190     -0.005155      0.017924
Li	      1.99349      4.15553     -1.99959        -0.041454     -0.015839     -0.025721
Ti	      3.98290      6.30500     -2.07629        -0.071285      0.099472      0.177233
Ti	      4.17633      4.19272     -4.33031         0.070353     -0.097911     -0.173912
Ni	      3.99805      4.16009     -0.05426         0.027725     -0.003952     -0.026141
Ni	      4.16041      2.11388     -2.12131        -0.027513      0.002623      0.024363
O	      2.07896      2.06159     -2.25692        -0.103351      0.094793     -0.217265
O	      4.10047      4.29721     -2.22432        -0.002234      0.143843     -0.111890
O	      2.12141      4.05817     -4.28499         0.058296     -0.158778      0.101913
O	      4.05783      1.97618      0.04833         0.003940     -0.143732      0.113150
O	      4.06872      0.02387     -1.99762         0.103759     -0.094100      0.217759
O	      2.02335      4.19568     -0.02727         0.001665     -0.000290     -0.000996
O	      4.02698      2.25141     -4.19969        -0.058987      0.160389     -0.103981
O	      2.02355      6.30737     -2.14291         0.001348      0.001622      0.000616
