# total energy = -244.33902372 eV
 
CRYSTAL
PRIMVEC
-0.011415 6.419748 6.305697 
6.274625 -0.028192 6.322495 
4.163701 4.271643 0.000638 
PRIMCOORD
36 1
Li	      6.14870      4.26873      2.12121         0.039496      0.006721     -0.016624
Li	      4.21230      2.21238      2.10678        -0.019673     -0.000061     -0.032709
Li	      8.25757      4.20219      4.24574        -0.020712     -0.037140      0.009324
Li	      6.29933      2.19625      4.19267        -0.026159      0.012338      0.026694
Li	      4.22674      6.30915      2.11314         0.019042      0.010198      0.013916
Li	      6.29300      4.26389      6.24925         0.017245      0.042136     -0.001924
Li	     10.39083      8.57950     10.54778         0.018142      0.010558      0.025330
Li	      2.06858      6.44054      4.27750         0.010207      0.029369      0.001072
Li	      2.06972      4.30205      6.28382         0.017955     -0.010009     -0.000235
Sc	      2.07799      4.24752      2.11429        -0.122845     -0.076241      0.014594
Sc	      4.11771      6.43185      6.29071         0.004567     -0.008327      0.109612
Ti	      6.21214      6.48352      8.64261        -0.163434     -0.005872      0.269727
Mn	      8.27200      8.51663     12.54907        -0.000943     -0.017215      0.054422
V	      4.23136      2.13446      6.27415         0.001151     -0.053611      0.030038
V	      8.37102      8.51616      8.53147         0.019642     -0.004338     -0.146595
Cr	      4.20630      4.25039      4.17712         0.019404      0.095044      0.106738
Fe	      2.10468      2.05261      4.14103        -0.020541      0.042730      0.012247
Ni	      0.03433      6.37540      6.27656         0.016549     -0.050696     -0.090117
O	      2.06222      2.18240      2.10746         0.013465      0.109091     -0.077950
O	      4.13480      4.26154      2.16531         0.100044     -0.001038      0.057255
O	      4.13167      2.22013      4.28970         0.079693      0.103134      0.010234
O	      6.19866      4.36358      4.17967         0.045180     -0.097118      0.000598
O	      6.30792      2.03999      6.31382         0.075131      0.097567     -0.006211
O	      8.40917      4.30533      6.31942        -0.108667     -0.005174      0.074074
O	      2.17002      4.15493      4.18957        -0.052352      0.029568     -0.047675
O	      4.24083      6.29215      4.23040        -0.059854     -0.090239     -0.012401
O	      4.20619      4.24269      6.33100        -0.013063      0.024845     -0.030645
O	      6.31075      6.41527      6.30586        -0.094276      0.029995      0.014464
O	      6.27375      4.43001      8.44503        -0.369687     -0.020708     -0.022309
O	      8.27725      6.45868      8.34587        -0.054982     -0.440178     -0.042478
O	      2.07834      6.42433      6.30229         0.064883     -0.049995      0.034219
O	      3.94601      8.53479      6.28501         0.040502     -0.092712     -0.015399
O	      4.28177      6.27722      8.39289         0.206132      0.483314      0.052439
O	      6.26974      8.37171      8.41957         0.349857     -0.062846     -0.009702
O	      6.27785      6.39493     10.45872         0.007690      0.010318     -0.451475
O	      8.33178      8.52895     10.47459        -0.038791     -0.013411      0.087451
