# total energy = -248.45957534 eV
 
CRYSTAL
PRIMVEC
0.023661 6.260371 6.449738 
6.335020 0.013353 6.460122 
4.226506 4.183747 0.005866 
PRIMCOORD
36 1
Li	      0.02875      0.02192      0.05128        -0.017698     -0.006881      0.053547
Li	      6.25479      4.23472      2.18089        -0.019538     -0.003592      0.047842
Li	      6.30722      2.11240      4.35489         0.004032     -0.011974     -0.047363
Li	      2.19199      4.16913      2.25673         0.035320     -0.003574      0.092560
Li	      6.30396      6.26844      4.34583         0.012901      0.021387      0.008036
Li	      4.18830      4.27417      4.30553        -0.023202     -0.036477     -0.014070
Li	      6.30768      4.19801      6.37314         0.009392      0.035764     -0.026154
Li	      2.21343      6.16264      4.37537         0.046137     -0.012532     -0.013297
Li	      4.20871      6.20799      6.32852         0.001969     -0.082267     -0.070292
Sc	      0.14715      4.13536      4.39333         0.085405     -0.039094     -0.108130
Sc	      4.15919      4.23115      8.56059         0.051982     -0.083320      0.000694
Ti	      8.29645      4.25530      4.40223        -0.363636      0.077229      0.138584
V	      4.17034      2.20398      2.16700        -0.072399      0.081994      0.021287
V	      6.36973      6.23206      8.60527         0.051660     -0.039699     -0.030279
Cr	      4.28544      6.19193      2.18946         0.000831      0.048568     -0.035307
Cr	      4.28908      2.10990      6.42182         0.009503     -0.038930      0.041039
Fe	      2.07304      8.20073      6.43627        -0.065312      0.215621      0.041610
Fe	      2.13052      4.25039      6.38923        -0.014491      0.039333      0.054234
O	      2.11337      2.10846      2.01211        -0.023922     -0.018358     -0.011771
O	      4.24517      4.16658      2.17543         0.012468     -0.030780     -0.018015
O	      4.25030      2.01853      4.35374        -0.016212     -0.104864     -0.052094
O	      6.48450      4.18926      4.28462         0.398041      0.043992      0.043106
O	      6.36452      2.08071      6.58389        -0.089295      0.033141     -0.048911
O	      8.46878      4.23122      6.30761        -0.011900      0.007097     -0.246616
O	      2.11648      4.18499      4.30617        -0.040614     -0.078008     -0.070385
O	      4.26795      6.28054      4.16236        -0.033726      0.057174      0.104257
O	      4.29542      4.11750      6.51987        -0.025626      0.024081      0.009184
O	      6.49894      6.30603      6.60644        -0.008939     -0.006933     -0.038285
O	      6.28724      4.16217      8.67819        -0.025309      0.084787     -0.001157
O	      8.53720      6.29426      8.47744        -0.064671      0.015815     -0.019038
O	      2.13623      6.30698      6.39931         0.006863     -0.178425      0.026054
O	      4.12610      8.36181      6.50259         0.060809     -0.052562      0.046478
O	      4.26801      6.33492      8.69962         0.006247     -0.039921      0.065673
O	      6.27070      8.27393      8.62028         0.120549      0.034093      0.035128
O	      6.25519      6.23742     10.58948        -0.034207     -0.004374      0.030410
O	      8.45588      8.46626     10.78380         0.036587      0.052488     -0.008559
