# total energy = -251.32247893 eV
 
CRYSTAL
PRIMVEC
0.032772 6.301952 6.438701 
6.292382 0.017663 6.454812 
4.195943 4.212848 0.010578 
PRIMCOORD
36 1
Li	      8.43364      8.43900     12.79945        -0.005602      0.019571     -0.054353
Li	      2.23065      6.33769      8.61865        -0.050578     -0.033697      0.029888
Li	      6.39843      2.13274      4.44472        -0.064088     -0.007736      0.046471
Li	      8.37670      4.18247      8.53955         0.005472      0.009176     -0.018008
Li	      4.24649      2.08781      6.39713        -0.004988     -0.015194     -0.062375
Li	      6.34858      4.13788      6.44406         0.003563     -0.028969      0.022464
Li	     10.42569      8.42353     10.80552         0.002187     -0.013191      0.008390
Li	      4.17392      6.35989      6.47894         0.011935     -0.003907     -0.043661
Li	      8.41413      8.46063      8.66186        -0.015162      0.020853      0.059484
Sc	      6.31559      2.19286      8.51528         0.028477     -0.000861      0.004849
Sc	      6.31970      6.20783      8.56446        -0.021909      0.070221     -0.045509
Ti	      6.35783      8.45278      6.53520         0.074011     -0.040261      0.321964
V	     10.42438      4.24388      6.46829        -0.001354     -0.011210      0.092988
V	      4.25961      4.16020      4.30003        -0.085062      0.135106     -0.193946
Cr	      8.39498     10.47374     10.77546        -0.139764     -0.011556     -0.016421
Cr	      6.27504      6.33329      4.35095        -0.189699      0.074383     -0.055104
Cr	      8.40951      6.40524     10.74907         0.051180     -0.038241     -0.028181
Co	      4.13261      2.11085      2.13850         0.063756     -0.015742     -0.080633
O	      2.08285      2.11425      2.33711        -0.032919      0.033711      0.054942
O	      4.20665      4.19601      2.21600        -0.020349     -0.045888      0.033263
O	      4.06413      2.03755      4.33741         0.224329     -0.037218     -0.117051
O	      6.28066      4.30801      4.36405         0.322459     -0.133689      0.045802
O	      6.29514      2.01246      6.49469         0.012883      0.084778     -0.019028
O	      8.48620      4.18054      6.32709        -0.088969     -0.011375     -0.003332
O	      2.21653      4.21931      4.38238        -0.195413     -0.030729      0.010287
O	      4.18050      6.26222      4.26676         0.056654      0.165093      0.086447
O	      4.07532      4.22687      6.29145        -0.020319      0.020652      0.067414
O	      6.27247      6.45435      6.42625        -0.017998      0.116640     -0.054437
O	      6.31263      4.22229      8.50784         0.025924     -0.060914     -0.012639
O	      8.40154      6.32111      8.75234         0.029257      0.019124      0.032472
O	      2.04837      6.24414      6.32188         0.121495     -0.096143     -0.010172
O	      4.35065      8.49317      6.41418         0.025612      0.004184      0.145219
O	      4.25461      6.34960      8.72662        -0.074291     -0.032539      0.044112
O	      6.34401      8.41684      8.41383        -0.001396     -0.060048     -0.327691
O	      6.32276      6.33870     10.73586         0.010167     -0.031441      0.002240
O	      8.41828      8.41688     10.75111        -0.039501     -0.012940      0.033846
