# total energy = -238.60855897 eV
 
CRYSTAL
PRIMVEC
0.037583 6.390816 6.258973 
6.303870 -0.005668 6.301731 
4.195375 4.282248 0.003456 
PRIMCOORD
36 1
Li	      6.27917      0.14351      6.28518        -0.015922      0.004886     -0.027693
Li	      4.20556      0.08309      4.21526        -0.039667     -0.001147      0.022999
Li	      6.25083      2.11522      4.22318         0.066158     -0.048581     -0.014587
Li	      6.32575      2.10574      8.31149        -0.023558      0.065851      0.070332
Li	      4.29600      4.17555      4.15917        -0.112210     -0.010094      0.015129
Li	      4.26559      2.12400      6.26701        -0.004171     -0.006973      0.038265
Li	      4.22784      6.38483      6.30583         0.040536     -0.026533     -0.027648
Li	      8.37038      8.48414      8.35899         0.039395     -0.110738      0.056858
Li	      6.35260      6.40377      8.38948         0.090538     -0.079890      0.026769
Sc	      6.27333      4.25810      6.22732         0.013209      0.151638      0.187856
Sc	      6.41856      8.44547      6.33617         0.054922     -0.162699     -0.206002
Ti	     10.41420      8.59824     10.46817         0.170056      0.050602     -0.218493
V	      4.24935      8.44536      8.44042        -0.121245      0.231128      0.055349
V	      8.45617      4.31943      8.36971        -0.182980      0.084223     -0.065881
V	      2.15799      6.41356      4.19633         0.042222     -0.099888     -0.289007
Co	      8.40414      2.15985      6.29662        -0.104351      0.167134      0.051518
Co	      6.29077      6.33527      4.20426        -0.057639      0.435037     -0.016687
Cu	      6.23882      4.25462      2.13424         0.014149      0.012652      0.090838
O	      2.16375      2.30276      1.94755         0.052084     -0.163851     -0.031587
O	      4.16561      4.07130      2.08211         0.271089     -0.052122     -0.026548
O	      4.13554      2.12713      4.07598        -0.336604     -0.145614      0.034756
O	      6.25632      4.34489      4.16141         0.094033      0.119071     -0.344947
O	      6.46766      2.18954      6.28750         0.069508     -0.048162     -0.056994
O	      8.40584      4.14135      6.32184        -0.054671     -0.049091     -0.150427
O	      2.04035      4.27821      4.19858        -0.056390     -0.205582      0.032159
O	      4.19389      6.58155      4.16860         0.272099      0.053739      0.071513
O	      4.21487      4.25294      6.33607        -0.033196      0.000094      0.012412
O	      6.35203      6.40035      6.30453         0.002361      0.046010      0.031778
O	      6.38361      4.29114      8.47831        -0.017614      0.000002      0.146368
O	      8.49122      6.27774      8.49624        -0.023872      0.006147      0.206941
O	      2.13468      6.51668      6.22855        -0.023257     -0.014331      0.198401
O	      4.18853      8.53830      6.21891        -0.064377     -0.010052      0.033487
O	      4.08199      6.63293      8.34222        -0.074656     -0.195459      0.032809
O	      6.20844      8.43767      8.38363        -0.104240     -0.038647      0.067595
O	      6.43251      6.22767     10.47160        -0.033025     -0.116650      0.023729
O	      8.49926      8.49940     10.54965         0.191286      0.157889     -0.031359
