# total energy = -221.34140122 eV
 
CRYSTAL
PRIMVEC
0.041687 6.353965 6.463572 
6.206667 0.091746 6.411799 
4.172310 4.236738 0.027173 
PRIMCOORD
36 1
Li	      6.25579      0.20704      6.38794        -0.001369      0.010931     -0.059457
Li	      6.34152     10.50070      8.60570         0.040463     -0.032218      0.024706
Li	      6.31811      8.45978     10.70832        -0.032713     -0.001567     -0.029804
Li	      6.18923      2.20104      8.43877         0.018972     -0.013188     -0.042505
Li	      6.27078      6.37155      4.47018        -0.016787      0.006664      0.146890
Li	      8.31967      6.43386     10.68823         0.041316     -0.061924      0.017107
Li	      6.32888      8.42798      6.57093         0.013752     -0.074772     -0.007526
Li	      8.13382      8.54034      8.57282        -0.036722      0.068308     -0.055197
Li	      6.33410      6.46202      8.56094        -0.043497     -0.028533     -0.009384
Sc	      4.30620      8.46162      8.63444        -0.098632     -0.173426     -0.149064
Sc	      4.18220      4.31019      4.33043        -0.082418      0.132123      0.026333
Sc	      0.12186      4.24844      4.24164         0.232425      0.023048     -0.041994
Mn	      8.21959      2.22125      6.39345         0.021996      0.135339      0.394761
Fe	      4.22502      6.33058      6.50348        -0.101635     -0.000164      0.377817
Co	      4.15451      6.40409     10.70114        -0.308971      0.032969      0.276248
Cu	      8.31598      4.35593      8.54995         0.076150     -0.124154     -0.062211
Ni	      8.30266      6.40077      6.48904        -0.021305     -0.090050     -0.010564
Ni	      6.23808      4.29936      6.48307         0.082699      0.032023     -0.020656
O	      8.34126      6.23696      8.49370         0.040968      0.150499      0.175651
O	      2.07414      2.33884      1.90784        -0.047690     -0.007631     -0.054341
O	      4.01650      4.22277      2.22536         0.058833      0.054398      0.042651
O	      4.13029      2.07999      4.31771        -0.001627     -0.330431     -0.032304
O	      6.33432      4.32642      4.30887         0.242628     -0.060811     -0.142930
O	      6.30840      2.24072      6.40561         0.133039     -0.140923     -0.122891
O	      8.28114      4.25321      6.17242         0.106245     -0.110953      0.123149
O	      2.12403      4.28718      4.45859        -0.026098      0.016833      0.190376
O	      4.17611      6.36760      4.46238         0.000568      0.011797     -0.083773
O	      4.19011      4.29761      6.46325        -0.131684     -0.045202     -0.007064
O	      6.17442      6.34239      6.50485         0.077911      0.169181     -0.022594
O	      6.43275      4.31090      8.57350        -0.091701     -0.060439      0.117369
O	      2.16148      6.60257      6.50558        -0.065815      0.078197     -0.031898
O	      4.06657      8.39787      6.48857        -0.032738      0.097571     -0.119983
O	      4.14878      6.38087      8.72233         0.012548      0.078198     -0.510201
O	      6.22638      8.53883      8.57855         0.094651     -0.021498      0.046259
O	      6.02660      6.38913     10.74476        -0.066621     -0.027955     -0.088735
O	      8.34182      8.68953     10.88219        -0.087143      0.307758     -0.254239
