# total energy = -218.45759313 eV
 
CRYSTAL
PRIMVEC
0.013151 6.292016 6.297174 
6.367662 -0.007649 6.318096 
4.228424 4.191976 0.011496 
PRIMCOORD
36 1
Li	     10.50552      4.19320      6.36293        -0.027115      0.012705      0.093526
Li	      4.29922      8.37087      8.39686         0.018434      0.021711     -0.039374
Li	      8.51036      4.15540      4.29466         0.010441     -0.031623     -0.059776
Li	      8.45285      4.24631      8.39877         0.010390     -0.046216     -0.064009
Li	      8.49446      6.05344      6.37312         0.074560     -0.018449      0.044498
Li	      6.48267      4.26569      6.34202         0.025040     -0.036809      0.023195
Li	      6.46347      4.29372     10.47965         0.038736      0.008328     -0.004957
Li	      2.05338      6.19420      4.18527        -0.040264      0.051122      0.018504
Li	      2.07781      4.20934      6.25880         0.002502      0.072475      0.080976
Sc	      8.53115      2.21133      6.30553        -0.053485     -0.081531      0.073346
Sc	      6.28187      2.02303      4.28093         0.106633     -0.001011     -0.048270
Sc	      8.52473      8.33539      8.43393        -0.143153      0.164175     -0.081118
Mn	      4.19060      4.21788      4.20338         0.273253     -0.066733     -0.107154
Fe	      4.26198      6.35317      6.32764        -0.417010     -0.103866     -0.017538
Cu	      6.35834      2.08173      8.37262        -0.338656      0.165396     -0.067574
Cu	      2.17755      2.12344      4.20420        -0.092577     -0.131760     -0.026875
Cu	      6.37272      6.25791      8.43381        -0.042613     -0.045632     -0.007138
Ni	      6.33579      4.20252      2.12016         0.021335     -0.133487     -0.134816
O	      2.30878      4.09946      4.21427        -0.147825      0.018146     -0.017243
O	      6.15657      6.29875      6.46721         0.579007      0.007117     -0.194287
O	      6.35396      4.14234      8.43424         0.133333      0.070141     -0.027122
O	      2.00458      2.02850      2.06630         0.196525      0.270217      0.394346
O	      4.27630      4.23192      2.26023        -0.191854     -0.148649      0.155102
O	      4.20151      2.28469      4.26331        -0.195478      0.022321      0.067646
O	      6.19674      4.24953      4.17385        -0.097955      0.117481      0.314671
O	      6.40325      2.03943      6.36887        -0.025646      0.010275     -0.387514
O	      8.52810      4.16248      6.27823        -0.029397      0.004984     -0.029723
O	      4.27090      6.15433      4.12800         0.150681      0.135304      0.299986
O	      4.25442      4.40792      6.19077        -0.000358     -0.117656     -0.010008
O	      8.48135      6.29588      8.36978         0.159718     -0.173024      0.045603
O	      2.36151      6.29841      6.35574        -0.125902      0.037752     -0.300688
O	      4.25946      8.22390      6.25609         0.014434      0.190008     -0.079684
O	      4.23694      6.28800      8.37714         0.058824     -0.083194      0.006944
O	      6.38212      8.39493      8.46332         0.066670     -0.075634      0.063456
O	      6.36532      6.28901     10.39352         0.021695     -0.083438     -0.034036
O	      8.37324      8.39278     10.49422         0.007076     -0.000945      0.057102
