# total energy = -102.41973494 eV
 
CRYSTAL
PRIMVEC
-0.000561 2.112430 2.156882 
6.117550 0.014922 -2.175429 
-2.008832 6.325394 -4.299136 
PRIMCOORD
16 1
Li	      0.12662      2.10071      2.09031         0.028161      0.013382      0.004158
Li	      1.89274      1.90437      0.17098        -0.024361     -0.010336      0.016378
Li	      4.22664      4.29630     -4.43832         0.020170      0.013450     -0.003348
Li	     -0.14877      6.36377     -2.24917        -0.037183      0.009257      0.013556
Ti	      2.02062      4.32503     -2.08864        -0.148098     -0.039248      0.118279
Ti	      2.07737      6.29423     -4.52622         0.090035      0.033783     -0.129974
Ni	      4.14717      2.16265     -2.16206        -0.029443     -0.096093      0.070074
Ni	     -0.00962      4.19050      0.09438         0.008668      0.031479     -0.048772
O	      4.00953      4.21327     -2.06277        -0.189053      0.105063     -0.116334
O	      4.03473      2.02102      0.02298        -0.000057     -0.100698      0.247488
O	      2.07407      6.34741     -2.09296         0.005531     -0.009244     -0.014851
O	      2.08887      2.31629     -2.29740        -0.011860      0.087945     -0.154346
O	      3.93055      6.31742     -4.29598        -0.260698     -0.017475     -0.015917
O	      0.19623      6.27748     -4.28326         0.170625     -0.007458     -0.010704
O	      0.14757      4.20618     -2.06212         0.241541      0.108949     -0.080055
O	     -0.00723      2.16101     -0.02821         0.136021     -0.122755      0.104367
