# total energy = -217.02587811 eV
 
CRYSTAL
PRIMVEC
-0.011505 6.227529 6.310982 
6.393504 -0.027770 6.327667 
4.248721 4.149005 -0.005251 
PRIMCOORD
36 1
Li	     10.49531      4.06457      6.32857         0.045419      0.024447      0.011022
Li	      8.51687      2.22810      6.35647         0.006795     -0.126596     -0.013624
Li	      2.25048      6.17435      8.45045        -0.018311      0.026935     -0.039175
Li	      4.23410      2.03901      2.21969        -0.002594     -0.004400     -0.055876
Li	      4.27787      0.08666      4.28437        -0.008848     -0.043385      0.040921
Li	      2.18038      2.05731      4.18904         0.043841     -0.055414      0.019301
Li	      4.36416      3.96105      4.21145         0.017898      0.077782     -0.011868
Li	      4.31167      1.97727      6.16732        -0.021475      0.017010      0.029879
Li	      6.28138      6.28791      8.45084         0.015180     -0.028571     -0.002162
Sc	      0.08228      1.98502      2.05084         0.070071     -0.052078      0.002005
Sc	      2.03081      6.22902      4.32070        -0.032275      0.183455      0.048266
Sc	      4.24428      4.21992      8.39428        -0.085596     -0.043155      0.097879
Mn	      2.13716      4.14353      2.09012         0.025317     -0.048538     -0.201548
Fe	      6.31744      8.18556      6.37677         0.071687      0.075124     -0.078576
Ni	      6.33405      2.07596      4.28675         0.258432     -0.158732     -0.215507
Ni	      6.43696      4.18093      6.22898         0.004410      0.159970      0.056158
Ni	      6.35750      4.17925     10.55685        -0.159387      0.039205      0.001321
Ni	      4.24694      6.21169      6.26678        -0.055302      0.036489     -0.079950
O	      4.46493      2.02154      4.21136        -0.273776      0.055934      0.005736
O	      2.11008      2.23699      2.12580        -0.080530      0.014448      0.033221
O	      4.01634      4.13189      2.08455        -0.024631      0.084834      0.032386
O	      6.40731      4.02168      4.24799        -0.020692      0.117519     -0.144274
O	      6.41296      2.16087      6.35074        -0.021944     -0.018476      0.045621
O	      8.45282      4.17269      6.53263         0.078031     -0.003608      0.172065
O	      2.03640      4.15976      4.10635         0.079973     -0.090135      0.093725
O	      4.17646      6.29252      4.27236        -0.007219     -0.092378     -0.087353
O	      4.21508      4.23539      6.29407         0.071342     -0.006266     -0.057981
O	      6.37146      6.28594      6.23480         0.125367     -0.343371     -0.012129
O	      6.45113      4.14416      8.44024         0.069960     -0.007834     -0.011279
O	      8.57176      6.14712      8.49792         0.071577     -0.104237      0.031359
O	      2.11829      5.97568      6.34356        -0.125450      0.296090     -0.071995
O	      4.34318      8.15817      6.22609        -0.190668      0.025543      0.108152
O	      4.25700      6.21217      8.18497         0.037438      0.035230      0.151016
O	      6.44560      8.24863      8.32573         0.073059     -0.000492      0.170858
O	      6.36245      6.25915     10.57949        -0.020021      0.010946     -0.023700
O	      8.44126      8.29871     10.50339        -0.017082     -0.053298     -0.043894
