# total energy = -230.02605372 eV
 
CRYSTAL
PRIMVEC
0.017017 6.298299 6.463198 
6.306385 0.042183 6.437619 
4.214435 4.192021 0.018399 
PRIMCOORD
36 1
Li	      8.40499      8.47970     12.83170        -0.033232      0.057129     -0.063133
Li	      2.17840      6.25038      8.58403         0.029304     -0.011223     -0.023262
Li	      8.40037     10.41361     10.79717        -0.011010     -0.067424      0.000256
Li	      6.42310      8.45712     10.74171         0.006264      0.035651     -0.034004
Li	      8.41005      4.24456      8.53358        -0.009989     -0.013953     -0.061667
Li	      6.30692      4.24572      6.44543        -0.005903     -0.064390     -0.015178
Li	      2.18740      4.24100      6.52445        -0.013923      0.048143      0.054263
Li	      4.21780      6.17561      6.58232        -0.017167     -0.096393      0.067548
Li	      8.33424      8.50992      8.63319        -0.010589     -0.009850      0.066100
Sc	      4.27788      8.36492      8.51314         0.044392     -0.075552     -0.108162
Sc	      6.35445      2.17013      8.49518         0.091117      0.062176     -0.240318
Sc	      6.28634      4.32124     10.78144        -0.208813     -0.020123      0.096180
Mn	      4.21820      4.20492      4.36584         0.160729     -0.116568      0.124268
Fe	      6.34211      6.24947      4.39074        -0.027699     -0.014645     -0.045162
Fe	      8.38817      6.28220      6.52131         0.187236     -0.027468     -0.061740
Fe	      8.34093      6.43659     10.87596         0.160660      0.056850      0.158875
Co	      6.31859      6.31093      8.53354         0.013267      0.046710      0.431484
Cu	      6.28340      0.06022      6.42916         0.019568     -0.007710      0.048910
O	      8.52943      4.32803      6.40186        -0.106939      0.041998      0.001024
O	      2.10802      2.09693      2.32388        -0.038311      0.019337      0.103168
O	      4.23589      4.21334      2.41416        -0.035381      0.012065      0.184468
O	      4.13448      2.25951      4.32909         0.073623      0.162883      0.019882
O	      6.15818      4.29359      4.34885        -0.224653     -0.101854      0.005625
O	      6.24985      2.07682      6.47809        -0.002495      0.091955      0.123912
O	      2.19072      4.19795      4.33805         0.118413      0.036208      0.005357
O	      4.20353      6.23576      4.32866        -0.000508     -0.107231     -0.034436
O	      4.21842      4.12577      6.27148        -0.031015      0.053772     -0.139212
O	      6.37905      6.28405      6.45138        -0.062541      0.024852      0.183020
O	      6.34376      4.25888      8.64326         0.020993      0.091835      0.060511
O	      8.39423      6.33711      8.57346        -0.248282     -0.029139      0.001445
O	      1.97890      6.30846      6.36123         0.072733     -0.000101     -0.115556
O	      4.18520      8.49015      6.46135        -0.000372     -0.050703     -0.075448
O	      4.34951      6.32748      8.59224         0.225497      0.033188     -0.033908
O	      6.31598      8.26507      8.58448        -0.111770     -0.156796     -0.049945
O	      6.40045      6.33095     10.52453        -0.139183      0.056488     -0.594140
O	      8.47813      8.36411     10.76997         0.115979      0.039881     -0.041023
