# total energy = -243.54457871 eV
 
CRYSTAL
PRIMVEC
-0.042712 6.271380 6.554184 
6.353699 0.029413 6.480936 
4.264037 4.161133 -0.008990 
PRIMCOORD
36 1
Li	      8.43449      2.13199      6.51843        -0.029068     -0.000180      0.000954
Li	      6.28754      2.31217      8.56926         0.039989     -0.093520     -0.046681
Li	      8.28905      4.25199      8.65442         0.082995     -0.015204      0.022695
Li	      4.18086      4.19616      4.53414        -0.009761     -0.027661      0.048706
Li	      8.46415      6.43038      6.67729        -0.012074     -0.057144      0.018411
Li	      6.26930      4.15131      6.69996         0.007420      0.018615     -0.055199
Li	      6.34563      4.20911     10.62337         0.022672      0.003492     -0.050864
Li	      2.19518      4.13215      6.50947         0.018067      0.031801     -0.020930
Li	      4.38434      4.08300      8.55820        -0.027644      0.061362     -0.011762
Sc	      2.07987      2.20778      4.37183        -0.041030     -0.017227     -0.036510
Sc	      8.50246      6.24597     10.71574         0.041621     -0.005649      0.007944
Sc	      4.26130      6.17112      6.55669         0.035583     -0.008184     -0.067061
Ti	     10.48054      4.19010      6.53181        -0.208594      0.022149      0.123376
Cr	      4.23971      2.09702      2.15385         0.013593      0.209133     -0.010492
Cr	      8.49259     10.39038     10.85723        -0.036744     -0.110861      0.082221
Fe	      2.05543      6.27478      8.64432        -0.092044     -0.087585      0.043240
Fe	      6.37078      2.14795      4.39542        -0.049628     -0.033764     -0.019302
Cu	      6.48244      6.19475      8.52849        -0.013133      0.174656      0.032027
O	      2.20252      1.99437      2.21538         0.029198      0.079709      0.041619
O	      4.34564      4.12428      2.00984        -0.046745     -0.051104     -0.145829
O	      4.28373      2.01018      4.20129        -0.017259     -0.003441     -0.010488
O	      6.49257      4.13656      4.19835         0.028216      0.062503     -0.035393
O	      6.34793      1.97948      6.39519        -0.018847     -0.092902      0.058750
O	      8.61854      4.16200      6.32582         0.221354      0.014246      0.001984
O	      2.14097      4.19333      4.32295        -0.023930     -0.014180      0.007679
O	      4.22696      6.29529      4.44094        -0.000317     -0.000148      0.001968
O	      4.22188      4.22284      6.53278        -0.009024      0.054799      0.025014
O	      6.29931      6.27912      6.39289         0.040800      0.010652     -0.118407
O	      6.35697      4.29060      8.65732         0.008470     -0.062467      0.002696
O	      8.46262      6.28175      8.72976         0.111624      0.020597     -0.055455
O	      2.05324      6.26125      6.60886         0.003111     -0.009580     -0.036073
O	      4.20657      8.44369      6.70749        -0.014310      0.008620      0.059496
O	      4.15057      6.33859      8.77282        -0.066049     -0.051618      0.019148
O	      6.21564      8.35262      8.83911        -0.018871     -0.018291     -0.013152
O	      6.28717      6.30758     11.05148        -0.032213     -0.029548      0.136896
O	      8.32970      8.39819     10.87028         0.062571      0.017922     -0.001226
