# total energy = -239.25352210 eV
 
CRYSTAL
PRIMVEC
0.018886 6.343400 6.327438 
6.317518 0.026440 6.319572 
4.235544 4.247467 -0.006227 
PRIMCOORD
36 1
Li	      0.13068      6.29374      6.25623        -0.091801     -0.051946     -0.036469
Li	      2.21710      8.32751      6.34111         0.123000     -0.012100      0.011424
Li	      2.14075      6.38351      8.28413        -0.017529      0.027020      0.135050
Li	      4.13196      8.52165      8.26811        -0.011111      0.023260     -0.110867
Li	      6.34909      2.11851      4.39708         0.050440     -0.032809      0.034878
Li	      2.19134      4.14511      2.00393         0.017754     -0.005388     -0.172544
Li	      6.42494      4.18901      6.24066        -0.018717     -0.043531      0.023777
Li	      2.09766      6.34959      4.48308        -0.050924      0.022128     -0.099499
Li	      4.03542      6.48072      6.26157         0.060615      0.009561      0.016409
Sc	      0.10450      2.08331      1.98083        -0.023046     -0.057295     -0.015863
Sc	      8.37537      8.53680      8.44165         0.088737     -0.035467     -0.007925
Sc	      6.34065      6.37371      8.36979        -0.007440     -0.047220      0.109248
Ti	      4.33281      4.26263      4.19259         0.277050     -0.028464     -0.172713
Mn	      8.43245      4.31877      4.27470         0.013285     -0.030053      0.068297
Cr	      4.28321      8.46560      4.28714        -0.089759      0.004432      0.116942
Co	      4.21976      2.15566      6.28881         0.151865     -0.006040      0.046086
Co	      2.10094      4.26657      6.32553        -0.400120      0.812209      0.279068
Ni	      2.12211      2.15332      4.18301        -0.001549     -0.094038     -0.084177
O	      2.09190      2.14848      2.09435        -0.071703     -0.022937     -0.010109
O	      4.16586      4.26055      2.33626         0.055930      0.040731      0.356610
O	      4.20047      2.25492      4.34456         0.103465      0.035825      0.053173
O	      6.23214      4.28806      4.25695        -0.150323     -0.021913     -0.046327
O	      6.17494      2.14448      6.31524        -0.041924     -0.023339      0.035758
O	      8.41690      4.46993      6.16059         0.030184      0.063763     -0.039278
O	      2.12739      4.22663      4.37651         0.013478      0.145724     -0.201924
O	      4.25869      6.30596      4.21251        -0.108519     -0.032385     -0.014151
O	      4.12015      4.16887      6.28348         1.149480     -0.186335     -0.120207
O	      6.47127      6.47979      6.27258         0.150823     -0.160597      0.083747
O	      6.28980      4.24362      8.50344        -0.003561      0.022626      0.024617
O	      8.44115      6.41143      8.26769        -0.032026      0.009289     -0.061184
O	      2.12817      6.18497      6.37323         0.107262     -0.069413     -0.007740
O	      4.39608      8.44726      6.23988        -1.288039     -0.284534     -0.132561
O	      4.24769      6.34907      8.61968         0.016488     -0.041824      0.006854
O	      6.35054      8.43419      8.33228        -0.005073     -0.011743      0.064849
O	      6.30388      6.25054     10.49259         0.036885      0.053030     -0.047544
O	      8.56033      8.50993     10.55039        -0.033576      0.029771     -0.085706
