# total energy = -245.88162299 eV
 
CRYSTAL
PRIMVEC
-0.006636 6.231105 6.372518 
6.545317 0.000042 6.365751 
4.353588 4.140117 0.009996 
PRIMCOORD
36 1
Li	      0.08329      6.22673      6.43880        -0.020873      0.014582      0.024163
Li	      2.17960      0.08028      2.14956         0.031825     -0.063135      0.031713
Li	      4.29018      2.02299      2.15479        -0.048229     -0.000359     -0.031317
Li	      0.06873      2.02196      2.08162        -0.032979      0.014001     -0.050094
Li	      6.64745      6.15030      4.38399        -0.073044     -0.018858     -0.052675
Li	      8.40083      6.27448      6.31800         0.058544     -0.037853      0.068139
Li	      6.55729      4.32786      6.28113        -0.025765     -0.141030      0.068342
Li	      4.51985      6.27587      6.36675        -0.047498     -0.030493      0.001445
Li	      6.47815      6.27947      8.36778         0.007079     -0.007563      0.032993
Sc	      8.74890      4.13454      8.35426        -0.026956      0.026848     -0.058693
Sc	      4.44438      4.12493      4.24859        -0.009384     -0.020281      0.032137
Sc	      4.37933      4.17619      8.34132         0.041419      0.022432     -0.026899
Ti	      4.43462      8.23063      4.28286        -0.003582     -0.060374     -0.017070
Mn	      2.13514      1.97555      0.07989         0.051062      0.005101     -0.019222
Mn	      8.66837      4.18557      4.26436        -0.034088     -0.027788      0.021702
Mn	      6.50118      8.25437     10.59987         0.009075     -0.006337      0.033043
Cr	      8.71350      6.23950     10.62832         0.036559      0.079386     -0.048337
Ni	      6.46949      8.24763      6.50741         0.000507      0.089254      0.030953
O	      2.14596      2.11257      2.10009        -0.002287     -0.046320      0.073097
O	      4.22345      4.14732      2.23102         0.039413     -0.023947     -0.018599
O	      4.34999      2.00981      4.31547        -0.034628      0.017151     -0.012781
O	      6.48179      4.02320      4.27154        -0.039893      0.038296     -0.018149
O	      6.74154      2.00504      6.13487        -0.051889      0.032710      0.091380
O	      8.69862      3.99254      6.26386        -0.006406      0.062062      0.012794
O	      2.07640      4.22418      4.25030        -0.062089     -0.015623     -0.048553
O	      4.22608      6.30006      4.26860         0.039859      0.127172     -0.015304
O	      4.22756      4.18516      6.34744         0.083647     -0.034002     -0.050248
O	      6.47321      6.26860      6.38222        -0.010795     -0.097575     -0.002817
O	      6.55513      4.15172      8.67448         0.020738     -0.010517      0.054642
O	      8.73935      6.24097      8.60846         0.023658     -0.011275     -0.023770
O	      2.16100      6.27861      6.27481         0.028477      0.021308      0.017341
O	      4.30796      8.29759      6.20892        -0.064815      0.032206     -0.097012
O	      4.36448      6.22888      8.74828         0.030457      0.053553     -0.044621
O	      6.62967      8.31040      8.62020         0.001817      0.014587      0.055195
O	      6.67705      6.20403     10.61565         0.022954     -0.003977     -0.015023
O	      8.89940      8.31214     10.56998         0.068111      0.006656      0.002104
