# total energy = -92.49971022 eV
 
CRYSTAL
PRIMVEC
4.047594 -0.000039 -0.000078 
-2.023910 4.237140 -6.204297 
-2.023832 4.232939 2.064971 
PRIMCOORD
16 1
Li	      2.02189      2.13232     -0.12291         0.000761     -0.007574     -0.030283
Li	     -0.00199      4.19870      0.00252        -0.002339      0.008174      0.020238
Li	     -0.00162      2.04146     -1.97608         0.001389     -0.048771      0.041023
Li	     -0.00174      4.28850     -4.13941         0.002520      0.014506     -0.013996
Mn	     -2.02539      4.24414      1.98485        -0.000134      0.021487     -0.056507
Mn	     -0.00196      6.42006     -2.00990        -0.000216     -0.019722      0.146143
Ni	     -2.02588      4.25474     -1.97416        -0.000598     -0.071594      0.053606
Ni	     -2.02535      6.30401     -4.20594         0.001079      0.010553     -0.053960
O	     -2.02585      6.26684     -2.10618         0.001119      0.214546      0.085926
O	      2.02202      4.18278      0.10762        -0.000601      0.008612      0.088437
O	     -0.00152      6.46780     -3.99692        -0.003849     -0.032667      0.075557
O	     -2.02544      8.36629     -4.15771        -0.001396      0.114507      0.007263
O	      2.02184      4.16296     -4.23275         0.000312     -0.168932     -0.025136
O	      2.02162      2.31254     -2.19953         0.005386     -0.234091     -0.200055
O	     -0.00218      4.48072     -2.03071        -0.000136      0.228894     -0.030558
O	     -0.00125      1.87361      0.01110        -0.003295     -0.037927     -0.107699
