# total energy = -103.09126758 eV
 
CRYSTAL
PRIMVEC
-0.000107 2.080505 2.079907 
8.620797 -4.186358 4.184719 
2.159378 4.184640 -2.103649 
PRIMCOORD
16 1
Li	      0.27250      2.01601      2.14715         0.013287     -0.006658      0.007439
Li	      2.15678     -0.00586      2.08776         0.000531      0.001047      0.001072
Li	      6.20102      2.15827     -0.07483        -0.012919      0.005227     -0.006810
Li	      6.46759     -2.09924      4.17940         0.000616      0.000675      0.001317
Ti	      6.33697      0.00324      2.07837        -0.354455      0.062523     -0.060044
Ti	      8.75777     -0.01514      4.17914         0.355559     -0.061458      0.058910
Ni	      2.25241      2.03273      0.05093        -0.059599      0.079407     -0.079861
Ni	      4.22111      2.14136      2.02184         0.059680     -0.078850      0.078628
O	      6.52121      1.96517      2.19687         0.034430     -0.116790      0.118075
O	      6.56876      0.07682      4.08610         0.025630      0.046500     -0.044118
O	      8.52604     -0.08876      2.17134        -0.023952     -0.047131      0.044310
O	      8.57360     -1.97718      4.06053        -0.037113      0.114962     -0.118733
O	      1.97879      4.19171     -0.02700        -0.394119      0.072157     -0.075200
O	      2.18754      2.10946      2.05438        -0.113052     -0.127039      0.128364
O	      4.28607      2.06463      0.01831         0.111437      0.126971     -0.129819
O	      4.49517     -0.01738      2.09973         0.394039     -0.071542      0.076470
