# total energy = -219.78086287 eV
 
CRYSTAL
PRIMVEC
0.037654 6.111678 6.488432 
6.264374 0.021941 6.505276 
4.172661 4.082108 0.018079 
PRIMCOORD
36 1
Li	      2.14684      6.04859      8.60366        -0.014346     -0.028308     -0.061189
Li	      6.29025      8.20020     10.75820        -0.004963     -0.002094     -0.042061
Li	      2.12026      4.10245      2.21190        -0.014767      0.011005      0.023446
Li	      4.21914      4.05889      4.54911         0.009865     -0.015677      0.041182
Li	      4.17995      2.18057      6.47100        -0.022248     -0.091339     -0.013506
Li	      4.21865      8.14210      4.41651        -0.003739     -0.021843      0.086139
Li	      2.26557      4.08059      6.51845        -0.013553     -0.023656      0.000396
Li	      4.20923      6.00100      6.56147         0.019168      0.096746      0.033702
Li	      4.14933      4.10447      8.48843        -0.017892     -0.014651     -0.012653
Mn	      6.23346      6.19885      4.42121        -0.012660     -0.002114      0.037617
Mn	      6.30254      6.09425      8.60125         0.050321      0.036893     -0.036855
Fe	      6.28904      6.13555     12.97327        -0.063578     -0.019427     -0.078152
Fe	      2.13252      8.13699      6.48955         0.065121      0.060370      0.012561
Fe	      4.18222      2.06842      2.17888        -0.085028      0.027337     -0.025317
Fe	      8.35015     10.16444     10.80896         0.029823      0.002983      0.044479
Fe	      6.26545      2.09734      8.67050        -0.001867     -0.051196      0.087298
Fe	      2.15248      6.03380      4.32959         0.011488      0.131937     -0.019684
Co	      6.23402      4.12188      6.51169        -0.090898      0.113099     -0.025319
O	      2.05885      2.04825      2.06734         0.023290     -0.019649      0.036383
O	      4.20516      4.09971      1.99796         0.001758      0.011153      0.070564
O	      4.03784      2.02849      4.22602         0.077367      0.100565     -0.014639
O	      6.30430      4.20016      4.53811        -0.137785      0.037706      0.046542
O	      6.29795      2.09151      6.59507        -0.054905      0.111707      0.009580
O	      8.35372      4.09682      6.40084        -0.048370      0.008768     -0.051794
O	      2.10367      4.06159      4.36871        -0.015064     -0.119560      0.009328
O	      4.22624      6.15376      4.19897         0.084334     -0.040739      0.049250
O	      4.34712      4.08635      6.51105         0.107346      0.051916      0.021796
O	      6.28383      6.04557      6.58023         0.014451     -0.110473     -0.002865
O	      6.30626      4.13161      8.47826        -0.000211      0.097214     -0.068085
O	      8.44495      6.13722      8.85667        -0.081964      0.037929     -0.043378
O	      2.05518      6.14014      6.35978         0.034398     -0.124101      0.033102
O	      4.12102      8.20451      6.60593         0.045871     -0.108864     -0.007899
O	      4.15704      6.15474      8.80550         0.079867     -0.116908     -0.112333
O	      6.20025      8.02371      8.65622         0.061486      0.030053      0.033125
O	      6.28469      6.12157     10.87022        -0.014289      0.011358     -0.006242
O	      8.36716      8.16524     10.97614        -0.017829     -0.068138     -0.054520
