# total energy = -196.02648198 eV
 
CRYSTAL
PRIMVEC
-0.035831 6.233054 6.235041 
6.149939 -0.010409 6.209561 
4.088252 4.126612 0.004842 
PRIMCOORD
36 1
Li	     10.19140      4.17528      6.31743        -0.017896      0.064446      0.125747
Li	      4.05234      2.16123      2.08947        -0.027864      0.014152      0.028008
Li	      6.12273      2.09337      4.21514        -0.006633      0.039658      0.072834
Li	      0.03988      2.03799      2.05283        -0.009732     -0.055149     -0.046604
Li	      2.07494      4.09446      2.13269        -0.001076     -0.009899      0.046160
Li	      2.05140      2.10466      4.06270         0.010378     -0.012675     -0.026610
Li	      4.05543      4.13698      4.07906        -0.018282     -0.006666     -0.015004
Li	      6.15127      4.05876      6.21181         0.019109     -0.020481     -0.027662
Li	      0.02194      4.12540      4.13709         0.013288     -0.011779      0.000405
Mn	      8.16567      4.14873      4.17075        -0.032593      0.069961     -0.033446
Mn	      4.07476      6.20830      6.15561         0.079949     -0.045771     -0.036201
Mn	      6.12098      6.18519      8.31172        -0.060237     -0.012453     -0.010898
Ni	      8.15041      2.08597      6.22993         0.026899      0.039181     -0.031417
Ni	      6.03134      4.16087      2.11472         0.041638     -0.037464      0.015736
Ni	      4.17342      2.06165      6.19620        -0.019352      0.028694      0.006679
Ni	      2.01978      6.19367      4.15133        -0.059225      0.059091     -0.035654
Ni	      1.99981      4.15474      6.19969        -0.096719     -0.020946      0.037881
Ni	      8.18824      8.25534      8.32654         0.027915      0.019683      0.054385
O	      2.02277      2.01857      1.95471         0.026235      0.087397      0.127423
O	      4.10061      4.11839      2.09030        -0.163107     -0.001507      0.034607
O	      4.10381      1.91369      4.21600        -0.015328     -0.055071     -0.144562
O	      6.29856      4.12124      4.07655         0.073690      0.028636      0.130450
O	      6.17533      2.05203      6.24344        -0.007432      0.041049     -0.035885
O	      8.21765      4.12296      6.03926         0.005082      0.007106     -0.037805
O	      2.01418      4.20138      4.32863        -0.009234     -0.121885     -0.228332
O	      4.05266      6.19582      4.32208         0.103899      0.003793      0.039395
O	      4.01179      4.21919      6.26926         0.122579      0.109856     -0.100626
O	      6.03121      6.24408      6.33630        -0.043521     -0.156527      0.024957
O	      6.09784      4.31529      8.29155         0.158344      0.035831      0.010694
O	      8.03430      6.22864      8.27285         0.011301     -0.137750     -0.006515
O	      2.14675      6.20839      6.24859         0.010684      0.031937      0.003513
O	      4.05593      8.10387      6.24044        -0.064223     -0.049513     -0.023154
O	      4.13701      6.19605      8.32371         0.067846      0.069952     -0.044360
O	      6.14558      8.21311      8.14541        -0.090986     -0.083441      0.149623
O	      6.06721      6.25511     10.20101        -0.103121      0.010857     -0.017838
O	      8.15698      8.36417     10.41808         0.047724      0.077698     -0.005924
