# total energy = -200.86254186 eV
 
CRYSTAL
PRIMVEC
0.016797 6.210737 6.198336 
6.116375 0.013304 6.201727 
4.106913 4.171925 -0.020276 
PRIMCOORD
36 1
Li	      4.10662      4.17094     -0.00593         0.029594      0.023025     -0.173716
Li	      4.16133      8.33331      8.18899         0.082902     -0.082442     -0.080974
Li	      6.19298      8.23885     10.26763         0.019004     -0.146832      0.015212
Li	      6.11523      2.11633      8.21206         0.009462      0.201067     -0.055226
Li	      6.16258      4.13541      6.30398        -0.059230     -0.050747      0.145643
Li	      6.13798      4.17358     10.28935        -0.044761      0.105837     -0.107358
Li	      6.14676      8.30634      6.27171        -0.023930      0.025658      0.058950
Li	      8.17013      8.28161      8.20149         0.068235      0.023738     -0.006183
Li	      6.19596      6.26513      8.29526        -0.043928     -0.122022      0.102349
Cr	      4.16721      6.18372     10.32272         0.078324     -0.098711     -0.133972
Cr	      4.11544      4.13890      4.12625         0.082997     -0.010523      0.315906
Cr	      4.15884      6.23375      6.26692        -0.010480      0.083021      0.301604
Co	      8.12446      2.09732      6.18915         0.047342      0.104206     -0.478045
Cu	      6.12239     10.33561      8.20631         0.012673      0.009624     -0.069282
Cu	      2.02239      2.11482      4.14047        -0.095082      0.012195      0.095480
Cu	      8.25116      6.27908      6.28162         0.173791      0.196830     -0.083284
Ni	      8.15134      4.18279      8.21817        -0.769932      0.023492      0.009098
Ni	      8.11429      6.25864     10.27829        -0.189242      0.110833      0.066115
O	      8.20439      6.17072      8.20700         0.151299     -0.079456     -0.032243
O	      6.14132      8.39334      8.25176        -0.057956      0.048941      0.059899
O	      6.08103      6.21607     10.31397         0.124816      0.122731      0.058407
O	      2.04215      2.14281      1.91330         0.097319     -0.174933      0.069740
O	      4.07594      4.14481      2.15480         0.144290     -0.031975     -0.209348
O	      4.02087      2.06967      4.30643         0.092651      0.016395     -0.027209
O	      6.15227      4.27713      4.00058         0.017700      0.004297      0.127688
O	      6.23992      2.09482      6.16004         0.005910     -0.125487      0.035307
O	      8.18543      4.03240      6.10771         0.021267     -0.041755      0.220542
O	      2.12959      4.12943      4.08880         0.027875      0.018604     -0.148007
O	      4.10325      6.14432      4.22920        -0.010927     -0.075044     -0.016291
O	      4.07538      4.29141      6.11200        -0.125782     -0.111212     -0.136784
O	      6.04255      6.29068      6.16041         0.217224      0.035603     -0.188571
O	      6.22682      4.17281      8.26215         0.305541     -0.095970     -0.028250
O	      2.10873      6.33150      6.19681        -0.018962      0.086750      0.027466
O	      3.94403      8.15295      6.17374        -0.242845     -0.107602      0.014328
O	      4.04171      6.20381      8.26820        -0.056248      0.067766     -0.053759
O	      8.19207      8.34587     10.46650        -0.060913      0.034094      0.304767
