# total energy = -102.63806320 eV
 
CRYSTAL
PRIMVEC
4.008518 -0.000030 0.000348 
2.004996 4.625926 -6.534920 
2.004284 4.384423 2.024897 
PRIMCOORD
16 1
Li	      6.01111      4.47473      1.75925        -0.002945      0.013819     -0.031378
Li	      2.00263      2.55029     -0.23274        -0.001016     -0.029150     -0.031259
Li	      4.00691      4.43229     -0.08510         0.002762     -0.003304      0.036662
Li	      4.00697      1.92464     -1.93143        -0.002680      0.012826      0.053108
Ti	      4.00615      6.75561     -2.11072         0.003169     -0.183861      0.418731
Ti	      6.01148      6.88688     -4.64727        -0.001558      0.424518     -0.491799
Ni	      2.00279      4.47510     -2.12775        -0.002211      0.004503     -0.012193
Ni	      4.00685      4.59280     -4.43170         0.003523     -0.013615     -0.049786
O	      4.00704      4.85447     -2.33709        -0.001457      0.195666      0.060306
O	      6.01115      6.79601     -2.40944         0.003469     -0.027010      0.001531
O	      4.00670      2.08931      0.08779        -0.000512      0.020562      0.444896
O	      6.01122      4.45075     -0.16991        -0.000998      0.000642      0.174988
O	      2.00269      2.40135     -2.30742        -0.000037     -0.064295     -0.428909
O	      2.00264      4.44158     -4.28975        -0.000733      0.000833     -0.042979
O	      4.00700      6.66415     -4.36529         0.000395      0.095095      0.011003
O	      6.01142      8.69036     -4.45825         0.000830     -0.447228     -0.112920
