# total energy = -199.76451236 eV
 
CRYSTAL
PRIMVEC
0.041627 6.069263 6.208937 
6.376810 0.014743 6.235678 
4.272110 4.083567 -0.010521 
PRIMCOORD
36 1
Li	      8.40294      2.04516      6.30895        -0.062155      0.044203      0.054255
Li	      4.09821      2.11398      2.10576        -0.026593     -0.039088      0.006400
Li	      6.45997      8.14050     10.28379        -0.030668      0.012879      0.068392
Li	      4.34054      6.08738      2.18110         0.036491     -0.012247     -0.054135
Li	      6.28918      6.14993      4.06749         0.041612     -0.029474     -0.020717
Li	      4.25490      4.18205      4.10738        -0.080882     -0.108210     -0.095724
Li	      6.41775      4.06990      6.24085         0.041257     -0.040507      0.054116
Li	      4.31306      8.05423      4.12599         0.033788      0.012387     -0.056491
Li	      2.33257      6.10380      4.16340         0.034327      0.033501     -0.053413
Cr	      4.28473      6.01303     10.26138        -0.160698     -0.030128      0.311474
Cr	      4.33502      1.99601      6.10462         0.028978      0.251629     -0.032616
Cr	      6.35950      8.14397      6.19695         0.160243     -0.054280     -0.321588
Cu	     10.59518      4.07361      6.22767        -0.135910      0.053659      0.115936
Cu	      6.31179      4.13548      2.09712         0.008466      0.301218     -0.014629
Cu	      2.12160      4.00004      2.12889        -0.028324     -0.100894      0.117216
Cu	      4.28854      6.09913      6.17578         0.062047      0.313731      0.064387
Cu	      4.37308      4.00524      8.30141         0.068334     -0.315525      0.117024
Cu	      6.47790      6.09846      8.31481         0.021987     -0.066455      0.060959
O	      8.48428      5.97247      8.17817        -0.056357      0.370591      0.014228
O	      1.97935      6.07013      6.38015        -0.049621     -0.292699     -0.105925
O	      4.49936      6.08655      8.22709        -0.041641      0.112688     -0.211794
O	      6.46402      8.16155      8.19876         0.061268      0.015881     -0.118240
O	      6.21889      6.12278     10.31289         0.249676     -0.037699      0.138117
O	      8.57363      8.22804     10.21846         0.041703      0.048026      0.041868
O	      2.08634      2.09199      2.05209        -0.025488     -0.420380      0.037343
O	      4.00364      4.05107      2.03013         0.380960      0.104511     -0.107154
O	      4.24966      1.94931      4.26348         0.025234      0.031917     -0.060016
O	      6.63186      4.10548      3.96704        -0.087828     -0.032667      0.061027
O	      6.17049      1.99349      6.21981        -0.113800      0.171495     -0.019148
O	      8.54245      4.10441      5.98808         0.102053     -0.179917     -0.236047
O	      2.23703      4.10403      4.42135        -0.014877      0.083163      0.383063
O	      4.30457      6.10469      4.31097        -0.054911     -0.007323      0.015499
O	      4.21922      4.03305      6.33742        -0.160559     -0.145756     -0.050173
O	      6.62830      6.15557      6.29720         0.139979      0.162750     -0.015668
O	      6.60214      4.10202      8.31089        -0.349178     -0.027179      0.028229
O	      4.46786      8.10910      6.24597        -0.058915     -0.183801     -0.116055
