# total energy = -225.06468113 eV
 
CRYSTAL
PRIMVEC
0.050139 6.322850 6.180178 
6.363546 0.031647 6.199296 
4.264773 4.250522 -0.001552 
PRIMCOORD
36 1
Li	      4.37541     10.54959      6.23272        -0.002838     -0.012483      0.020273
Li	      6.43621     10.38119      8.24472        -0.036505     -0.011875      0.014237
Li	      4.40332      8.46905      8.20265        -0.023979      0.018716     -0.053873
Li	      6.28531      2.21999      4.07859        -0.011138      0.005318      0.023831
Li	      4.29546      4.19997      4.23652        -0.057182      0.073780     -0.093436
Li	      4.26456      2.32137      6.11634         0.002309     -0.023269      0.041838
Li	      2.27114      4.28686      6.25750         0.057801      0.005974     -0.044174
Li	      4.25589      6.20700      6.23199         0.000618      0.019361     -0.050522
Li	      4.13751      4.32619      8.06839        -0.039159     -0.009626      0.041454
Mn	      4.24162      0.04552      4.13015        -0.053706      0.070955     -0.030860
Mn	      6.37298      2.13729      8.20887        -0.005367     -0.151704     -0.008520
Mn	      2.11826      6.32785      4.17255        -0.012924      0.011462      0.054442
Cr	      6.44850      6.34950      4.17949         0.028602      0.010563     -0.008249
Cr	      4.28316      8.46133      4.14396         0.003768     -0.001296      0.131918
Fe	      2.26321      8.38029      6.24587        -0.067691     -0.010452      0.035415
Fe	      8.58549      4.27238      8.18513         0.036842      0.042229      0.026455
Fe	      6.33924      6.57119      8.11931         0.022521     -0.082158      0.048961
Ni	      6.29177      4.24385      6.18728         0.049731     -0.035801     -0.043128
O	      4.32045      4.23202      6.14074        -0.168016      0.024692      0.020917
O	      2.22770      2.22084      2.10178        -0.041141     -0.055269      0.112942
O	      4.16238      4.41405      2.08052         0.114099      0.039079      0.030507
O	      4.16751      1.95680      4.17625         0.021557     -0.064473     -0.016816
O	      6.56594      4.34342      4.11413         0.046299      0.020501     -0.052632
O	      6.49380      2.16482      6.29543        -0.039625     -0.092947      0.027390
O	      8.46354      4.18460      6.16475         0.069103      0.032386     -0.104982
O	      2.04199      4.18931      4.08717         0.008600      0.042453      0.018391
O	      4.30737      6.44480      4.00202         0.096836     -0.012662      0.007083
O	      6.37527      6.31941      6.18618         0.051091      0.079893     -0.158438
O	      6.48802      4.15329      8.28911        -0.042190      0.067044      0.080205
O	      8.38403      6.28801      8.41472         0.060000      0.032589      0.022349
O	      2.16156      6.40087      6.05489        -0.002105     -0.114914     -0.050570
O	      4.19705      8.45843      6.10894         0.117115     -0.005146     -0.030479
O	      4.39502      6.31679      8.41787        -0.164690     -0.029737      0.035500
O	      6.39627      8.42459      8.25821         0.036430      0.129430      0.008405
O	      6.33011      6.26896     10.27838        -0.053027     -0.018267     -0.006018
O	      8.61941      8.52487     10.37109        -0.002036      0.005653     -0.049814
