# total energy = -234.25543528 eV
 
CRYSTAL
PRIMVEC
0.024474 6.248266 6.214893 
6.390895 -0.000376 6.239988 
4.256658 4.178261 0.003495 
PRIMCOORD
36 1
Li	      4.35326     10.35462      6.23575         0.017005      0.044418      0.013963
Li	      2.28233      8.26430      6.22145         0.075543      0.010002      0.042553
Li	      4.36885      8.29994      8.24741        -0.038230     -0.001029      0.028233
Li	      6.34728      8.36623     10.27768        -0.129802     -0.013061     -0.002762
Li	      4.32081      4.09329      4.16358         0.089049     -0.065968      0.016114
Li	      6.33906      8.38956      6.32106         0.008744      0.021869     -0.046618
Li	      4.23094      6.32340      6.29924        -0.006340     -0.032473      0.006122
Li	      8.40172      8.38757      8.26316        -0.033294     -0.010229     -0.063056
Li	      6.34123      6.42761      8.29217        -0.048289      0.098439     -0.032107
Mn	      2.17684      6.16785      8.21058        -0.000361      0.108620      0.028612
Mn	      0.02234      2.05635      2.05098         0.058656     -0.090609      0.018113
Mn	      2.17467      2.10464      4.15753         0.104434     -0.020730     -0.027224
Mn	      8.52000      6.29694      6.28190        -0.021845      0.083602     -0.044069
Mn	      4.25998      8.38562      4.20999         0.138745     -0.005378     -0.109365
Mn	      8.49485      6.29877     10.44875        -0.029970     -0.032040     -0.018438
Cr	      8.54024     10.39154     10.34311        -0.129834      0.076203      0.035011
Cr	      6.35990      4.16829      6.25952        -0.060286     -0.041966     -0.038580
Co	      2.18189      4.16547      2.06744         0.060563     -0.040274     -0.001176
O	      2.16915      2.03510      2.17299         0.051829      0.010736      0.007050
O	      4.37441      4.31248      2.10046         0.012029     -0.009708     -0.003844
O	      4.12691      1.98075      4.14570         0.004976     -0.014277     -0.023756
O	      6.49291      4.11365      4.26436         0.007334     -0.032505      0.068378
O	      6.28521      2.14325      6.29880        -0.057812     -0.023928      0.034689
O	      8.43708      4.30239      6.25528        -0.018754     -0.085270      0.008234
O	      1.98966      4.26397      4.07284        -0.036700      0.055507      0.017721
O	      4.40360      6.40343      4.10646         0.040225      0.038371      0.047356
O	      4.37173      4.01794      6.19955         0.003399     -0.003871      0.031720
O	      6.46542      6.19471      6.15255         0.022310      0.037569     -0.009803
O	      6.42978      4.00550      8.31717         0.004910      0.062138      0.080709
O	      8.52610      6.19979      8.42853        -0.080606     -0.001638      0.062651
O	      2.16237      6.26818      6.11837         0.001250      0.031011     -0.010798
O	      4.29342      8.35932      6.03034         0.001660     -0.019676     -0.040576
O	      4.14250      6.21707      8.37537        -0.001370     -0.018580     -0.073828
O	      6.36691      8.46712      8.29982        -0.020291     -0.070990     -0.027806
O	      6.29595      6.11937     10.33301        -0.025220     -0.018574      0.011499
O	      8.72380      8.33764     10.39779         0.036341     -0.025709      0.015077
