# total energy = -196.17547119 eV
 
CRYSTAL
PRIMVEC
0.054739 6.141581 6.344271 
6.244970 0.047316 6.350328 
4.183681 4.118019 0.012395 
PRIMCOORD
36 1
Li	      6.10770      3.97183      2.21885        -0.075412     -0.035632     -0.115615
Li	      4.33092      8.20776      8.52959        -0.005374      0.057238     -0.085078
Li	      6.33434      8.22104     10.48591         0.031184      0.049022     -0.046469
Li	      4.20515      6.11794      2.18616         0.010099     -0.031759      0.041417
Li	      4.21284      4.16948      4.21527         0.016114      0.006964     -0.080041
Li	      8.42937      6.22887     10.51114         0.033581     -0.011632      0.061482
Li	      6.33672      8.18043      6.41219        -0.092765      0.026962      0.023462
Li	      4.24258      6.07630      6.25606        -0.057339      0.053091     -0.046095
Li	      4.14832      4.16385      8.35976         0.012519      0.020623     -0.026222
V	      2.17480      7.98204      6.46717         0.433014     -0.298595      0.017822
Cr	      8.36073      4.19970      8.50086         0.071872     -0.154971      0.123257
Co	      6.25627      6.15879      4.20515        -0.054258      0.056365     -0.162741
Cu	      4.22389      6.20374     10.54252        -0.048788     -0.116081     -0.020510
Cu	      4.14384      2.15248      6.32672        -0.089399      0.087606     -0.016128
Cu	      6.23550      4.15935      6.31054        -0.080215     -0.059335     -0.027048
Cu	      4.22175      8.20851      4.26276         0.069659     -0.047474      0.194809
Cu	      6.29957      6.24867      8.50270        -0.013797      0.051695     -0.050592
Ni	      4.14245      4.12422      0.07740         0.131117     -0.029323      0.167470
O	      4.43707      6.19204      8.59586         0.030250     -0.029745     -0.102840
O	      6.32495      8.09310      8.44396         0.046878      0.085432     -0.004544
O	      6.21908      6.13647     10.82856         0.038995      0.087958     -0.195592
O	      8.46337      8.28409     10.87222        -0.165412      0.030777     -0.058190
O	      2.10831      2.12491      1.98513        -0.005991      0.064656      0.178578
O	      4.07052      4.14563      2.03624        -0.029039      0.025400      0.284001
O	      4.02409      2.02828      4.30975        -0.059830      0.137145      0.017192
O	      6.37618      4.27374      4.08603        -0.079626     -0.105858      0.112038
O	      6.51956      2.16268      6.36183        -0.105489      0.226638     -0.041676
O	      8.23315      4.20866      6.43914        -0.155852     -0.003960      0.039748
O	      2.04883      4.00458      4.15378         0.128280      0.029465      0.028180
O	      4.32205      6.24837      4.14390         0.086539     -0.080718      0.013091
O	      4.35936      4.04856      6.29454         0.051736     -0.051124      0.003823
O	      6.16382      6.08613      6.04158         0.054337     -0.043013     -0.075778
O	      6.32288      4.33800      8.59045        -0.048827     -0.053826     -0.200777
O	      8.22008      6.19215      8.39462        -0.009271      0.110890      0.030358
O	      2.14185      6.22413      6.42286         0.042008      0.061100      0.003355
O	      4.02444      8.22927      6.36722        -0.111501     -0.115980      0.015852
