# total energy = -196.91351697 eV
 
CRYSTAL
PRIMVEC
-0.025261 6.189720 6.301410 
6.033067 0.024336 6.250633 
4.040388 4.111313 -0.002135 
PRIMCOORD
36 1
Li	      9.99548      4.14392      6.21828        -0.081710      0.091459      0.101248
Li	      8.02555      2.17368      6.18929        -0.100699      0.082231      0.064110
Li	      8.02455      4.17990      4.27797        -0.091417      0.118228      0.031225
Li	      6.02030      2.12354      4.28983        -0.081214      0.119921      0.095960
Li	      8.07126      4.10507      8.26592         0.034439     -0.020074     -0.158705
Li	      2.10011      2.02996      4.19039         0.114518     -0.126364     -0.014974
Li	      4.04970      4.02462      4.22939         0.117044     -0.128290      0.008612
Li	      4.03059      2.05050      6.13280        -0.004366     -0.007179     -0.065484
Li	      8.02917      8.27812      8.37647        -0.053169      0.051173     -0.040008
V	      6.08941      6.16135      8.37708        -0.164409      0.316186     -0.488942
Cr	      6.02026      2.09263      8.32286        -0.068797     -0.118373     -0.273644
Co	     10.03808      8.26650     10.47010         0.167067     -0.034383      0.621572
Co	      2.01221      4.11608      6.24308         0.347995     -0.093605      0.176166
Cu	      6.05605      4.11491      2.16267         0.034201     -0.061427      0.348997
Cu	      3.98908      2.12174      2.14852        -0.099813      0.124668      0.070323
Cu	      1.99883      6.19956      4.26340        -0.082642     -0.072895     -0.103257
Ni	      6.04011      4.09709      6.13367        -0.164275      0.033458      0.301639
Ni	      4.01149      6.17548      6.24458         0.116582     -0.153506      0.130265
O	      2.01942      6.02205      6.24566        -0.356951      0.026343      0.212462
O	      8.14953      8.16751     10.47699        -0.031466      0.098029      0.000302
O	      1.99604      1.97117      2.07294        -0.165630     -0.067646      0.027660
O	      4.07337      4.15733      2.07215         0.095183      0.190774      0.001597
O	      4.05190      2.06874      4.06859         0.020540      0.002547     -0.056561
O	      6.06084      4.10841      4.22080        -0.087782      0.018844     -0.866846
O	      5.99357      2.15732      6.39025         0.008575     -0.314946      0.034466
O	      7.92278      4.15189      6.26759         0.484164      0.004684      0.096709
O	      1.90650      4.19067      4.33341        -0.036209     -0.093314     -0.036661
O	      3.98385      6.31246      4.13367         0.136035     -0.055200     -0.293797
O	      3.99497      4.20001      6.29494        -0.404224     -0.224270     -0.033769
O	      6.03684      6.23354      6.38801         0.171800      0.299126      0.203736
O	      6.01746      4.18045      8.47946         0.009661     -0.014717     -0.223583
O	      7.95659      6.21126      8.42233         0.041154     -0.012098      0.048547
O	      4.13890      8.18584      6.16110        -0.094895      0.412797      0.180640
O	      4.10812      6.29505      8.35039         0.233458     -0.184522      0.073200
O	      5.96858      8.23175      8.20530         0.188992     -0.172105     -0.127817
O	      6.04808      6.09170     10.37441        -0.151739     -0.035553     -0.045386
