# total energy = -200.85848237 eV
 
CRYSTAL
PRIMVEC
0.039477 6.152772 6.283300 
6.189571 0.005248 6.317193 
4.136717 4.135049 -0.006979 
PRIMCOORD
36 1
Li	      6.27385      6.32028     12.45742        -0.070359     -0.001865      0.044051
Li	      4.17314      2.04028      2.23243        -0.081646      0.102297      0.114950
Li	      4.20147      6.26130     10.41732        -0.018305      0.141752      0.001980
Li	      6.14996      2.10597      4.35892        -0.091695      0.050236     -0.040422
Li	      6.14920      2.07533      8.28598        -0.013633     -0.106280      0.053266
Li	      6.27303      6.12070      4.30800         0.036149     -0.072531     -0.062784
Li	      4.25792      2.11569      6.21737         0.025834      0.032810     -0.027942
Li	      6.12074      4.06080      6.21942        -0.086543      0.025223     -0.099206
Li	      8.27570      8.25101      8.47951        -0.019243     -0.014813     -0.010124
V	      8.29013      4.03731      8.27133         0.817724     -0.128943     -0.117472
Cr	      6.20970      8.21382      6.25734         0.183319      0.127638      0.278721
Co	      6.30560     10.22563      8.48817        -0.415605      0.800192     -0.403981
Co	      4.13878      4.06166      4.20314         0.879618     -0.078177      0.054545
Co	      2.08962      6.13522      4.19289         0.150202      0.028061     -0.143661
Cu	     10.31812      8.24491     10.48171         0.124088     -0.074364     -0.032931
Ni	      8.22789      8.20262     12.54502         0.148621      0.052998      0.008053
Ni	      4.17749      6.15969      6.31875        -0.125668     -0.268902     -0.108452
Ni	      6.20926      6.21186      8.41117        -0.003717      0.097689      0.121691
O	      2.09220      2.19471      2.07669        -0.060302      0.089916      0.026269
O	      4.01326      4.12903      2.29062        -0.416493     -0.120243     -0.393410
O	      4.13363      2.23367      4.21155        -0.174970     -0.272070      0.097533
O	      6.05463      4.16032      4.07847        -0.420381     -0.030276      0.770838
O	      6.24594      2.10437      6.32058        -0.134315      0.029143     -0.009842
O	      8.30401      4.16561      6.52984        -0.019873      0.018889      0.078902
O	      2.14271      4.16724      4.19858         0.005045      0.123495      0.036945
O	      4.00874      6.00251      4.24255        -0.270296      0.344730      0.095484
O	      4.07700      4.12863      6.12313        -0.035188     -0.047194      0.219007
O	      6.20189      6.24201      6.36992        -0.064185      0.088221     -0.019922
O	      6.39378      4.10643      8.55926        -0.197408      0.081814      0.066866
O	      8.26426      5.99024      8.57994        -0.167992      0.177398      0.121878
O	      2.09860      6.12006      6.21247         0.050163     -0.054402     -0.252398
O	      4.17138      8.19933      6.08400        -0.019896      0.082599      0.007005
O	      4.09878      6.18238      8.38918         0.620987     -0.013585     -0.099262
O	      6.22163      8.34807      8.23471         0.006870     -1.025301     -0.293086
O	      6.35033      6.14574     10.45546         0.003340     -0.041735     -0.092873
O	      8.35639      8.04159     10.49464        -0.144246     -0.144418      0.009782
