# total energy = -199.77327299 eV
 
CRYSTAL
PRIMVEC
-0.060665 6.237894 6.296728 
6.202773 -0.071101 6.308377 
4.081967 4.112543 0.005253 
PRIMCOORD
36 1
Li	     10.16553      6.13447      8.44439        -0.270745      0.060765      0.367211
Li	      8.24246      4.14689      8.42483        -0.088386      0.234538      0.289718
Li	      6.17918      6.16816      4.34674        -0.250245      0.242221      0.264214
Li	      4.05607      4.12105      4.29770        -0.130360      0.237524      0.065382
Li	      8.12741      6.18815      6.28490        -0.275053      0.238092      0.078116
Li	      6.05992      4.19716      6.36851        -0.154050      0.349017      0.072109
Li	      2.12159      4.04189      6.24319         0.122083     -0.173792     -0.197270
Li	      4.19668      6.08248      6.29641         0.170681     -0.094453     -0.252969
Li	      6.16505      6.14194      8.20708         0.119717     -0.089445     -0.027173
V	      1.98219      2.07542      0.15601        -0.216807     -0.129725     -0.801575
Cr	     -0.01547      4.12975      4.15337         0.300473     -0.621884     -0.268980
Co	     -0.03832      6.21969      6.27075         0.399724     -0.626050     -0.207007
Co	      8.04866      4.15310      4.22094         0.909762     -0.030985     -0.236448
Co	      2.01845      6.19199      4.17371        -0.249418     -0.073098      0.098276
Cu	      6.07534     10.29442      8.40732         0.228439     -0.079010      0.210469
Cu	      4.12221      8.26531      8.37657         0.117938     -0.257245      0.192888
Cu	      6.14725      2.02967      4.20164        -0.116740      0.209053     -0.347162
Cu	      4.12763      4.09485      8.31249         0.191837     -0.330704     -0.309796
O	      4.09752      4.09549      6.34826         0.043956     -0.097284      0.484488
O	      6.15015      6.18619      6.27971         0.193095     -0.018229      0.063438
O	      6.32599      8.31104      8.50800        -0.310218      0.092063      0.085694
O	      1.92266      2.00905      1.91501         0.094431     -0.075641     -0.307586
O	      4.19867      3.98465      1.90178        -0.092690      0.222434     -0.148600
O	      4.19152      2.01598      4.04915         0.169734      0.252569      0.084715
O	      6.28759      4.12580      4.34483        -0.902931     -0.298036      0.104899
O	      6.25600      1.83820      6.20619         0.900634      0.309688      0.340747
O	      8.36918      3.92792      6.24248        -0.268205     -0.920324      0.515048
O	      1.95011      4.27716      4.14036         0.005352     -0.067865      0.016412
O	      3.89126      6.25676      4.21780         0.374323      0.104319     -0.123009
O	      6.01681      4.10489      8.50489         0.401369     -0.068514     -0.113208
O	      8.15269      6.20565      8.66424         0.126185      0.135701     -0.869910
O	      1.89402      6.29557      6.10083        -0.018730      0.866959      0.413460
O	      3.95874      8.36706      6.25963        -0.746271      0.028205      0.335129
O	      4.00300      6.27410      8.50464        -0.173320      0.041151     -0.357343
O	      6.20292      6.05085     10.62931        -0.346263      0.505680      0.326326
O	      8.22090      8.15269     10.67701        -0.259301     -0.077696      0.159297
