# total energy = -203.12234044 eV
 
CRYSTAL
PRIMVEC
0.008647 6.147842 6.293778 
6.193934 0.003533 6.299801 
4.124060 4.096911 0.008212 
PRIMCOORD
36 1
Li	      2.03229      2.00331      0.06690         0.005306      0.018621     -0.023677
Li	      4.12723      8.11004      8.38792         0.029398     -0.009893      0.018659
Li	      4.02669      0.10837      4.13870         0.069690      0.028421     -0.105917
Li	      4.18037      6.11395      2.14516         0.015561      0.023728      0.100048
Li	      6.26602      6.05359      4.24570         0.050737      0.023960     -0.000185
Li	      6.21187      4.15997      6.21823        -0.015579     -0.013319     -0.016917
Li	      6.23000      8.14525      6.31337        -0.021938      0.017126     -0.027336
Li	      4.12387      6.16092      6.37356        -0.031660      0.017581     -0.018954
Li	      6.11138      6.18403      8.27855        -0.029644     -0.000737     -0.012635
V	      4.13741      8.16509      4.28031        -0.043284     -0.043061      0.254034
Cr	      4.14442      4.10290      8.37843         0.017115     -0.088143      0.058731
Fe	      2.12646      4.00299      2.05623        -0.083523      0.159722      0.144555
Co	      6.15355      2.08561      4.15971         0.069154     -0.099721     -0.036643
Co	      2.06555      6.16430      4.25008         0.010713      0.107283      0.087191
Cu	      8.21705      6.14960      6.27651         0.067992      0.013095      0.029057
Ni	      0.00268      0.02833      0.02786         0.028767     -0.004156     -0.022826
Ni	      2.07197      0.05821      2.06476         0.063110     -0.065888     -0.067027
Ni	      4.13510      4.08095      4.22716        -0.014445      0.072759     -0.007187
O	      6.36497      6.14779      6.26699        -0.108399     -0.025541      0.028757
O	      2.04765      2.10391      2.10814        -0.055473      0.089019     -0.006022
O	      4.11192      4.13534      2.10125        -0.076634      0.054151      0.032141
O	      4.30471      2.07409      4.05627         0.097279     -0.123558     -0.005061
O	      6.15295      3.93263      4.15786         0.096694     -0.152430      0.026081
O	      6.03108      2.04507      6.07063        -0.062417      0.095279     -0.196266
O	      8.25158      4.24421      6.39947        -0.073489     -0.014623     -0.095211
O	      2.01731      4.23086      4.15937        -0.082861      0.017148      0.016163
O	      3.97305      6.19863      4.29426        -0.083344      0.047904     -0.014044
O	      4.13834      3.94424      6.37579         0.017164      0.041171      0.009784
O	      6.18774      4.11467      8.64357         0.032184      0.009681     -0.078927
O	      8.28816      6.16508      8.68468        -0.029956     -0.103912     -0.001273
O	      2.01838      6.15577      6.16026         0.031753     -0.006101     -0.079159
O	      4.11348      8.24953      6.08398        -0.001916     -0.117009     -0.063008
O	      4.09089      6.05158      8.34158         0.085850     -0.021290     -0.015018
O	      6.28605      8.21199      8.56657        -0.075370     -0.009615      0.170341
O	      6.34912      6.21028     10.52415         0.085605      0.142417     -0.042138
O	      8.25120      8.11821     10.46544         0.015861     -0.080069     -0.040111
