# total energy = -192.83345995 eV
 
CRYSTAL
PRIMVEC
0.004076 6.241673 6.216628 
6.085582 0.015865 6.204914 
4.070085 4.166135 -0.002378 
PRIMCOORD
36 1
Li	      2.02720      2.07778      0.07849         0.011453      0.043564     -0.004084
Li	      2.00887      0.07646      2.02471         0.041837     -0.009352     -0.021238
Li	      2.02204      4.11045      2.05602        -0.019725      0.016291     -0.040615
Li	      6.01048      6.21403      4.04015         0.010030     -0.026284      0.012045
Li	      4.14343      4.25097      4.10074         0.037429     -0.007087      0.002359
Li	      6.08529      4.15340      6.25978         0.003040      0.010206     -0.009211
Li	     10.11996      8.25333     10.26910         0.016704     -0.033156     -0.022572
Li	      4.04422      6.24619      6.18901        -0.002678     -0.013301     -0.003715
Li	      6.12622      6.23210      8.27638         0.027287     -0.001892     -0.009985
V	      6.08380      8.21565      6.08473         0.021769     -0.092309      0.080188
Cr	      8.06569      4.15846      4.12171        -0.025589      0.007231      0.023739
Ni	      0.02133      0.01423      0.00953        -0.047098     -0.064955      0.038156
Ni	      4.02523      2.13169      2.10824        -0.026295      0.009563      0.016294
Ni	      6.09203      2.11302      4.16303         0.009630      0.064155      0.001244
Ni	      0.02672      2.08362      2.06008         0.089167     -0.057820     -0.083486
Ni	      4.05964      2.09500      6.20914        -0.110275      0.051576     -0.022945
Ni	      8.15057      6.28075     10.33447        -0.033091     -0.020978     -0.031379
Ni	      4.07183      4.18270      8.28432        -0.016070      0.077061     -0.044865
O	      1.97204      2.11481      2.05911         0.144756     -0.008124      0.002140
O	      4.06230      4.24326      1.93053        -0.010166     -0.103949      0.149540
O	      4.07255      2.00748      4.11254        -0.080818      0.015812      0.048871
O	      6.24004      4.13227      4.22614         0.051904      0.130365     -0.004254
O	      6.07144      2.09282      6.30323         0.121332      0.090677     -0.116003
O	      8.26952      4.21947      6.07369        -0.113088     -0.114991      0.003009
O	      2.01106      4.17822      4.32634        -0.017459     -0.090147     -0.074818
O	      4.03826      6.21251      3.94942         0.098662     -0.007052      0.250991
O	      3.89462      4.20532      6.26828        -0.039130      0.081849     -0.116836
O	      6.08670      6.40636      6.21778        -0.103426      0.024372      0.010338
O	      5.99255      4.04241      8.25447         0.154131      0.224055      0.010514
O	      8.21529      6.30999      8.26552        -0.190463     -0.112645     -0.002147
O	      1.94095      6.11648      6.17171         0.127478     -0.006897      0.097420
O	      4.21765      8.31337      6.34270        -0.050707     -0.063062     -0.118886
O	      4.14025      6.25711      8.48266        -0.030488      0.028602     -0.003260
O	      6.17001      8.35702      8.22404        -0.086432     -0.019680     -0.015869
O	      6.05431      6.30022     10.50135        -0.075851     -0.082906     -0.131819
O	      8.10842      8.40321     10.31218         0.112238      0.061205      0.131141
