# total energy = -219.98513362 eV
 
CRYSTAL
PRIMVEC
0.002997 6.279394 6.204718 
6.247743 -0.020719 6.229119 
4.153866 4.190370 -0.002474 
PRIMCOORD
36 1
Li	      2.13432      8.23438      6.27101         0.022752     -0.083381     -0.007582
Li	      2.27705      6.20440      8.23053        -0.031449     -0.041602      0.014350
Li	      4.21449      8.16261      8.26461         0.013451      0.030110      0.020041
Li	      4.13674      6.28046     10.13259        -0.006614      0.011001      0.017958
Li	      2.07188      2.07148      4.07658         0.016666     -0.007635      0.004538
Li	      2.05675      6.26236      4.19701         0.011010      0.015997      0.000880
Li	      4.07243      6.31144      6.42585        -0.010113      0.011508     -0.075568
Li	      4.03115      4.41792      8.27685         0.012122      0.043170      0.005556
Li	      6.02568      6.42484      8.29222        -0.025089      0.092436     -0.020389
Mn	      0.05618      2.06603      2.07673         0.010929     -0.000757     -0.050938
Mn	      6.24125      4.23081      6.20424        -0.026173     -0.068969     -0.022962
V	      4.12714      2.08710      6.16583         0.152940      0.037104     -0.102646
V	     10.29706      8.40925     10.40573        -0.133390      0.019867      0.028058
Co	      4.12477      4.20366      4.14206         0.042267     -0.057093      0.047935
Co	      4.17352     10.44524      6.19642         0.017776     -0.040288     -0.027395
Co	      6.34474      8.32577     10.23460         0.013836     -0.017644     -0.049213
Co	      2.08728      4.17820      2.05433        -0.023078      0.000155     -0.014447
Co	      6.23092      8.42946      6.33946         0.060698      0.062738      0.191064
O	      4.15840      6.29274      8.26710        -0.013453      0.019617     -0.027398
O	      1.94907      2.23212      2.05332        -0.001908      0.059309     -0.003020
O	      4.03119      4.30271      2.00349         0.000063      0.061323     -0.025142
O	      4.24320      2.07850      4.33908         0.119457     -0.012097      0.021820
O	      6.19690      4.14553      4.31822        -0.007351      0.180140      0.028859
O	      6.23496      1.96740      6.27092         0.042591     -0.117230      0.097687
O	      8.35525      4.26062      6.33498        -0.055736     -0.079393      0.039187
O	      1.98791      4.18084      4.01026        -0.015399     -0.012775     -0.070456
O	      4.14812      6.35447      3.99292         0.024574     -0.021437     -0.144872
O	      4.22685      4.05201      6.25760         0.082789      0.096040     -0.010862
O	      6.39940      6.30788      6.22523        -0.213765      0.106821      0.036927
O	      6.37765      4.03855      8.25048         0.032554     -0.071548     -0.036890
O	      8.49303      6.13153      8.15108        -0.008881     -0.077316      0.076767
O	      1.91120      6.21149      6.21789        -0.000423     -0.085497     -0.048689
O	      4.14347      8.51337      6.09007        -0.040409      0.002472      0.020601
O	      6.23822      8.35907      8.32121        -0.031502      0.038272      0.040481
O	      6.26491      6.17320     10.51146         0.008917     -0.084609      0.059257
O	      8.50256      8.32948     10.32222        -0.040661     -0.008806     -0.013499
