# total energy = -213.87331656 eV
 
CRYSTAL
PRIMVEC
-0.005080 6.289173 6.085145 
6.386293 0.014203 6.066196 
4.266161 4.188760 0.001188 
PRIMCOORD
36 1
Li	      8.60092     10.35981     10.13282         0.031860     -0.040579     -0.001100
Li	      6.51293      8.34759     10.07118         0.022289     -0.007765     -0.010642
Li	      2.05804      4.18428      2.16147        -0.000108     -0.003935      0.042108
Li	      2.05766      2.23841      4.06018        -0.008742      0.007990      0.032268
Li	      6.45940      4.23964     10.05020         0.013905     -0.023016      0.002183
Li	      8.46886      6.25195     10.10558        -0.003648      0.022231     -0.007787
Li	      4.26720      6.28897      5.93656         0.008387      0.020057     -0.016296
Li	      8.55349      8.37488      8.21034         0.033408     -0.027782      0.026665
Li	      6.43390      6.27125      8.22632         0.017481     -0.001292     -0.012492
Mn	      6.37099      6.30616     12.06824         0.050612      0.024908     -0.063501
Mn	      4.26949      6.29865      2.11423        -0.025342      0.076799     -0.121359
V	      4.28583      8.25209      8.20185         0.020251      0.018797      0.033751
V	      8.44303      6.28374      6.09227         0.110821      0.044105     -0.046910
Fe	      6.32811      4.27473      6.01401        -0.062029     -0.127030      0.005743
Co	      8.57577      8.36287     12.05481         0.092942      0.112016      0.018868
Ni	      6.39369      4.17741      2.10762         0.067988      0.111472     -0.016599
Ni	      2.11072      4.20895      6.03510         0.094177     -0.043133     -0.074451
Ni	      4.19102      4.25887      4.05328         0.016631     -0.253262     -0.009243
O	      2.28123      2.08497      1.85728        -0.036418      0.023453      0.052619
O	      4.28569      4.19511      1.96001        -0.068329      0.025070     -0.127914
O	      4.26604      2.12516      4.10250        -0.016127     -0.078878     -0.118579
O	      6.30024      4.18812      4.12549         0.261946     -0.074020      0.029855
O	      6.32545      2.01683      6.15330        -0.093314     -0.000311     -0.015153
O	      8.62029      4.23411      6.04087        -0.012632      0.073275     -0.045034
O	      2.20581      4.20730      4.08955        -0.308373      0.052357     -0.164508
O	      4.28788      6.27717      3.96032        -0.004545      0.366210      0.001534
O	      4.26964      4.10912      6.09312         0.090322      0.061957      0.167868
O	      6.49996      6.25235      6.09150        -0.153878     -0.117421      0.062439
O	      6.41019      4.06463      7.96641        -0.043876     -0.039803      0.108281
O	      8.50556      6.28392      7.89596         0.030041     -0.015448      0.042450
O	      1.93636      6.36183      6.12288        -0.109850      0.030155     -0.084190
O	      4.26903      8.55455      6.16184        -0.050524      0.008167      0.063291
O	      4.21529      6.47882      8.08485         0.054072     -0.086630      0.015575
O	      6.20502      8.44334      8.06825         0.015208     -0.108222      0.235205
O	      6.38234      6.30194     10.25187        -0.030059      0.018948      0.113978
O	      8.51487      8.38587     10.26053        -0.004547     -0.049439     -0.118925
