# total energy = -91.69848233 eV
 
CRYSTAL
PRIMVEC
0.000090 2.089585 2.089663 
6.044215 0.048928 -2.136268 
-2.032464 6.563539 -4.465170 
PRIMCOORD
16 1
Li	      2.07014      2.43386     -0.33479         0.005314      0.016649     -0.010516
Li	      3.97285      2.35714     -2.34074         0.017108      0.003731     -0.008580
Li	     -0.06023      4.26373     -0.03854        -0.011591     -0.017421      0.016805
Li	      4.06564      4.12607     -4.11057         0.031175     -0.012925      0.000597
Mn	      6.00520      2.16821     -0.08395        -0.034859      0.034850     -0.057737
Mn	     -0.00748      6.48221     -2.30461        -0.040543     -0.013201      0.036994
Ni	      2.09205      4.25910     -2.15945        -0.022276      0.070091     -0.061364
Ni	      2.01278      6.54559     -4.45557        -0.006268     -0.011145      0.018847
O	     -0.04029      4.55929     -2.46903        -0.070070      0.049942     -0.071512
O	      0.03804      1.93875      0.14139         0.000987     -0.041807      0.052443
O	      4.07157      6.71642     -4.62700         0.122115      0.037115     -0.027385
O	      4.06647      4.34165     -2.23855         0.120905      0.004663     -0.001847
O	     -0.06082      6.39256     -4.30533        -0.105980     -0.041229      0.042259
O	      4.14323      2.02223      0.06085         0.066955      0.101730     -0.109288
O	      1.88787      6.54033     -2.36321        -0.063037     -0.048840      0.062707
O	      1.89305      2.26680     -2.25574        -0.009936     -0.132203      0.117577
