# total energy = -220.13315472 eV
 
CRYSTAL
PRIMVEC
0.002206 6.204877 6.232552 
6.239771 -0.005634 6.240451 
4.170382 4.152704 -0.014166 
PRIMCOORD
36 1
Li	      4.16433      4.13919      0.02070        -0.071163     -0.052360      0.016110
Li	      6.27174      4.14012      2.12859         0.034470     -0.064060      0.052397
Li	      4.14381      2.11138      2.15120         0.015065      0.071957     -0.013942
Li	      4.25443      6.21408     10.27041         0.015577     -0.020707      0.056562
Li	      4.17284      6.12313      2.15039        -0.066871     -0.003299     -0.025567
Li	      4.11500      4.19634      4.00357        -0.096611      0.073586     -0.013512
Li	      8.33876      6.18880     10.31331        -0.019041     -0.064021     -0.077890
Li	      4.20664      6.23108      6.25305         0.030000      0.018929      0.044385
Li	      6.16580      6.22652      8.38858        -0.011411     -0.002045     -0.002486
Mn	      2.13208      8.20204      6.26962        -0.019628      0.234816      0.248267
Mn	      8.31400      8.31373      8.38184         0.056507     -0.185211     -0.090161
V	      6.21536      4.19345      6.14610         0.482239     -0.067955      0.044536
V	      2.03639      4.28764      6.28897        -0.039862     -0.102072     -0.233395
Fe	      4.19542      2.05201      6.19832         0.007166     -0.189141      0.291320
Fe	      6.28292      4.18255     10.38616         0.089826      0.126950     -0.074288
Co	      2.14170      4.16696      2.07135         0.405153      0.523547      0.493270
Co	      2.08375      2.03709      4.08692        -0.001070      0.347348     -0.224843
Ni	      6.19381      8.14768     10.32742        -0.013704     -0.043179     -0.079605
O	      2.09689      2.21949      2.06027        -0.042827     -0.748076     -0.217855
O	      3.98760      4.16221      2.04892        -0.068902     -0.021781     -0.054182
O	      4.10303      2.03485      4.23567         0.108656     -0.059388     -0.136577
O	      6.17659      4.08207      4.33654         0.035995      0.158548      0.017447
O	      6.22789      2.17886      6.16606         0.029984      0.047535      0.142318
O	      8.21247      4.18747      6.31361        -0.522799     -0.071725     -0.823321
O	      2.07502      4.18478      4.21921        -0.090215     -0.085480      0.482875
O	      4.32250      6.36193      4.10869        -0.158516     -0.116681      0.078342
O	      4.15521      4.10760      6.29095         0.058696      0.006194      0.031435
O	      6.30966      6.25315      6.16588        -0.033519     -0.115200      0.027875
O	      6.29385      4.17437      8.17016        -0.027655     -0.049063      0.087466
O	      8.35237      6.23591      8.20398        -0.043208      0.414043     -0.014510
O	      2.10147      6.05513      6.27309        -0.000628      0.155324      0.025955
O	      4.26695      8.25969      6.19314         0.028865     -0.020222      0.017175
O	      4.12041      6.01079      8.33995        -0.016823     -0.032644     -0.026762
O	      6.27283      8.25202      8.22148        -0.168585     -0.015191     -0.045224
O	      6.24652      6.12476     10.40011        -0.028872      0.004983      0.056242
O	      8.34744      8.22544     10.44147         0.143712     -0.054256     -0.059857
