# total energy = -207.50828984 eV
 
CRYSTAL
PRIMVEC
-0.022062 6.244808 6.146172 
6.227579 -0.001059 6.124561 
4.158349 4.155736 -0.007482 
PRIMCOORD
36 1
Li	      4.10156      0.09270      4.11080        -0.048029      0.070950     -0.107960
Li	      6.17297      2.08336      4.10523        -0.053604      0.028614     -0.121421
Li	      2.07453      4.18279      2.14392         0.056587     -0.072029      0.073620
Li	      6.25597      6.28084      4.19930         0.169709      0.021752      0.059449
Li	      4.08813      4.15022      4.13320        -0.021978     -0.183482      0.065672
Li	      4.06796      2.14994      6.02872        -0.077253      0.125267     -0.116341
Li	      0.08167      4.14026      4.11201         0.044032      0.112211     -0.010646
Li	      2.15281      4.06767      6.02397         0.107980     -0.041188      0.059551
Li	      4.22047      6.18391      6.03741         0.022354     -0.081587      0.133197
Mn	      8.28930      8.33692     12.22358         0.308879      0.015588     -0.106387
Mn	      6.23563      4.13741      2.12007         0.421456     -0.293390      0.215023
Mn	      4.14893      2.11452      2.12309         0.164697     -0.185399      0.293339
Mn	      6.26006      6.20727      8.13620        -0.590432      0.301026     -0.032563
Co	      4.13364      6.24777      2.11006        -0.228641     -0.002987      0.760292
Co	      4.13477      4.16817      8.16314         0.050504     -0.014941     -0.232385
Cu	      6.13586      6.25831     12.18344         0.017514     -0.094407     -0.071277
Ni	      6.19876      4.18666      6.04235        -0.169774      0.038526     -0.144649
Ni	      2.08053      6.18377      4.10774        -0.466241     -0.094014     -0.060094
O	      2.07053      4.30574      4.11615        -0.083554     -0.141904     -0.019061
O	      2.16175      2.07786      1.94981        -1.245245      0.016201     -0.211731
O	      4.26472      4.08674      2.11467        -0.106230      0.908625     -0.280819
O	      4.14153      2.08432      3.95592         0.003045     -0.020467      0.169725
O	      6.25631      4.14947      3.97440        -0.069117      0.064553      0.225231
O	      6.36070      2.06545      6.21965        -0.179402     -0.020068      0.263608
O	      8.31844      3.99038      6.07031         0.011571      0.019603     -0.000102
O	      4.00287      6.22402      3.99197         0.647664      0.127434     -0.774129
O	      4.16393      4.17176      6.28885         0.120801      0.013598      0.388936
O	      6.22618      6.19779      6.23826        -0.011957     -0.002036     -0.335264
O	      6.15379      4.18008      8.14458        -0.789023     -0.503748     -0.079819
O	      8.23787      6.31099      8.14026         1.030386      0.652659     -0.179368
O	      1.98914      6.38555      6.26486        -0.138483      0.025581     -0.138984
O	      3.97469      8.37989      6.24984        -0.006754      0.043194     -0.114426
O	      4.14891      6.29930      8.20047        -0.054384     -1.028170     -0.065787
O	      6.14302      8.27012      8.14903         1.145068      0.162202     -0.153976
O	      6.36498      6.21383     10.04789        -0.036829     -0.065587      0.451425
O	      8.29362      8.14758     10.25784         0.054680      0.097820      0.198121
