# total energy = -208.65394981 eV
 
CRYSTAL
PRIMVEC
0.078043 6.104537 6.153713 
6.510419 0.030880 6.200297 
4.356209 4.115915 0.005355 
PRIMCOORD
36 1
Li	      4.44106      4.12793      0.11185         0.046844      0.006226     -0.000961
Li	      2.27647      6.13910      8.20720         0.089390     -0.051740     -0.008186
Li	      4.28624      2.11431      2.11575         0.055430     -0.004619     -0.040322
Li	      4.41282      6.08564      2.10020        -0.023927      0.004562     -0.039747
Li	      6.50224      6.10010      4.04760        -0.032329      0.004595      0.085407
Li	      4.37932      4.19592      4.06528        -0.048787      0.040420      0.029384
Li	      2.39988      6.16841      4.13521         0.026323     -0.011127     -0.013761
Li	      4.30696      6.13545      6.10265         0.042117     -0.028377      0.011559
Li	      8.65931      8.20113      8.20162        -0.030862      0.015137     -0.057272
Mn	      8.79056     10.22956     10.30101        -0.216444      0.081753     -0.068883
Mn	      2.28466      4.05225      2.04838        -0.022909      0.299660      0.217311
Mn	      4.45861      8.10494      4.12270         0.135076     -0.107187     -0.035852
Mn	      2.23653      4.16276      6.14708         0.219358     -0.217978      0.117438
Fe	      6.55076      6.18591      8.24476        -0.076798      0.058458     -0.075989
Cu	      4.34434      2.07419      6.17754         0.017979     -0.004705     -0.026743
Cu	      2.27918      8.08589      6.19878        -0.056107      0.010150     -0.112159
Cu	      6.44598      2.12564      4.11850         0.047115     -0.030367     -0.103448
Cu	      6.44351      4.15137      6.16453        -0.244298     -0.055093     -0.055242
O	      4.16916      4.05606      6.12041        -0.061148      0.200895     -0.003016
O	      2.19222      2.14948      1.93999         0.013656     -0.089300     -0.094072
O	      4.12897      4.10500      2.11665        -0.054237     -0.032701     -0.008448
O	      4.26180      1.88327      4.21389        -0.004767     -0.077381      0.040081
O	      6.76831      4.07183      4.16045         0.264926      0.054143     -0.056572
O	      6.34559      2.21346      6.07227         0.256990     -0.042217      0.195247
O	      8.79355      4.11643      6.19371        -0.033740     -0.322893      0.029943
O	      2.05496      4.09210      3.99540         0.088601     -0.010190     -0.049513
O	      4.42729      6.27556      4.09121        -0.039648      0.072926     -0.034733
O	      6.59423      6.15365      6.24233        -0.132480      0.013312      0.053265
O	      6.69609      4.13688      8.28582         0.094021      0.028333      0.198023
O	      8.63011      6.05912      8.18623         0.014834     -0.098148     -0.010891
O	      2.24390      6.08326      6.19164        -0.027193      0.338519     -0.010304
O	      4.66136      8.18085      6.01309        -0.168124      0.020210     -0.034973
O	      4.50982      6.09094      8.42434         0.035755      0.015514     -0.097243
O	      6.59710      8.14300      8.30638        -0.016026      0.053859     -0.099876
O	      6.42273      6.09577     10.28350        -0.076705     -0.140309     -0.022268
O	      9.01149      8.25805     10.42774        -0.081881      0.005657      0.182813
