# total energy = -201.83516410 eV
 
CRYSTAL
PRIMVEC
0.038858 6.217792 6.108055 
6.308886 0.035975 6.110436 
4.217232 4.158142 0.012554 
PRIMCOORD
36 1
Li	     10.39496      4.22541      6.19492         0.044804     -0.002268     -0.026468
Li	      2.13139      6.22554      8.07328         0.076133     -0.039418     -0.053555
Li	      8.49398     10.33880     10.22923        -0.020186      0.040591     -0.076690
Li	      6.41221      8.29500     10.15435        -0.047478      0.034403     -0.081022
Li	      8.42383      4.19526      8.07272        -0.033495      0.003504      0.016196
Li	      8.43957      6.07068      6.19092        -0.029783     -0.044256     -0.021288
Li	      6.47776      4.15545      6.16597         0.021037      0.062392     -0.006505
Li	      6.33216      8.27360      6.14390         0.043113      0.061917      0.036886
Li	      4.26246      6.30963      6.20222        -0.063463     -0.036434      0.049837
Mn	      6.29764      6.29510      4.15542         0.181669     -0.130015      0.230635
V	      4.34583      4.05896      4.19045         0.163548     -0.179431      0.282877
Cr	      8.37968      6.28388     10.24252        -0.086314     -0.131767     -0.266724
Co	      4.22915      6.21104      2.03521        -0.167369     -0.070972     -0.031976
Cu	     10.47319      8.39750     10.23147        -0.016722      0.180415      0.188072
Cu	      6.31147      6.28937      8.03939         0.199666     -0.063770      0.020579
Ni	      8.38694      2.18598      6.13109         0.047760     -0.197885      0.005022
Ni	      4.29605      8.32234      8.05842        -0.036533     -0.083900      0.100631
Ni	      4.20009      4.21729      8.08305        -0.165913      0.111260     -0.157253
O	      6.53225      6.26224     10.00419        -0.136497     -0.235885      0.385196
O	      2.00819      2.08923      2.18221         0.446910      0.085625     -0.006988
O	      4.22951      4.22857      2.19987        -0.076269     -0.222728     -0.056640
O	      4.24469      2.25688      4.02135         0.092190      0.069631      0.170487
O	      6.15644      4.28538      4.08404        -0.163160     -0.037988      0.031697
O	      6.46211      2.11697      6.26950        -0.202274     -0.017853      0.135284
O	      8.42894      4.06834      6.08677         0.035426      0.147380      0.015616
O	      2.22426      4.14253      4.12771        -0.004376      0.073064     -0.026945
O	      4.07073      6.05740      3.98080         0.162611      0.161268     -0.063501
O	      4.23162      4.18381      5.95270        -0.004266      0.006400     -0.109879
O	      6.36380      6.20735      6.06845        -0.025953      0.041428     -0.453593
O	      6.26480      4.07770      8.28221         0.211922      0.190323     -0.285892
O	      8.55253      6.29824      8.21851        -0.261186     -0.203641     -0.192477
O	      2.14042      6.38513      5.96643        -0.056382     -0.056548      0.397076
O	      4.06002      8.34413      6.06382         0.139542     -0.003382     -0.140623
O	      4.34339      6.26175      8.17073        -0.360044      0.062646     -0.000118
O	      6.34931      8.26963      8.07652         0.008860      0.317604      0.048992
O	      8.41787      8.21332     10.16875         0.082474      0.108289     -0.056945
