# total energy = -205.10172521 eV
 
CRYSTAL
PRIMVEC
0.073399 6.160103 6.236631 
6.216695 0.056087 6.253082 
4.174006 4.147702 0.007829 
PRIMCOORD
36 1
Li	      8.36643      2.21042      6.26993         0.032588     -0.201148      0.004502
Li	      2.22034      6.19968      8.32859         0.023148      0.000509      0.023871
Li	      4.21511      8.17076      8.34128         0.024935     -0.028569      0.017322
Li	      8.25570      4.24736      4.20548        -0.000794      0.032219     -0.181444
Li	      8.31037      4.18148      8.21885        -0.021478     -0.026506      0.161169
Li	      2.22305      2.07633      4.16543         0.033528      0.063044     -0.002487
Li	      8.30739      6.12139      6.18853        -0.066316      0.156973     -0.027828
Li	      4.18220      8.24553      4.24441         0.011985     -0.018139      0.017911
Li	      6.23524      8.22290      6.27740         0.020922     -0.073418     -0.005750
Mn	      6.20793      2.13817      4.18861        -0.107546     -0.100757     -0.165936
V	      2.16089      6.08477      4.21293        -0.076734     -0.143979      0.187537
Cr	      0.15257      2.04977      2.02748         0.211182     -0.030068      0.069655
Co	      6.28757      4.16437      6.22941         1.226575      0.023904     -0.073529
Co	      4.26028      6.26517      6.31336        -0.065915      0.236848      0.034782
Ni	      4.03359      4.02125      0.06160         0.287113      0.139305     -0.096048
Ni	      4.20260      4.12439      4.13181        -0.126630      0.020544     -0.034767
Ni	      4.15798      4.19260      8.31948        -0.096207      0.008134     -0.015569
Ni	      6.25269      6.21360      8.31588         0.020383      0.009537     -0.035739
O	      1.93801      2.07434      2.14135        -0.250864      0.064148     -0.081418
O	      4.15903      4.31980      2.04514        -0.032234      0.104619      0.065935
O	      4.31692      2.14389      4.17871         0.046468     -0.263370      0.044295
O	      6.24279      4.03979      4.28931         0.096684     -0.168994     -0.859259
O	      6.21490      2.16083      6.23812        -0.108174     -1.003335      0.081880
O	      8.24730      4.18085      6.23427        -0.204129     -0.069099     -0.014275
O	      2.10434      4.29466      4.13378        -0.057996      0.123538     -0.057742
O	      4.07361      6.22685      4.03699         0.002375      0.071724     -0.073796
O	      4.32127      4.34763      6.19873        -0.643230      0.023409      0.050156
O	      6.21784      6.12342      6.26509        -0.095380      1.158845      0.024754
O	      6.20970      4.07810      8.17871         0.017816     -0.244057      0.903003
O	      8.38618      6.28347      8.48928         0.127262     -0.153144     -0.077058
O	      2.21234      6.17224      6.05658         0.030473      0.005067     -0.104743
O	      4.26120      8.15074      6.23977        -0.105877     -0.000062      0.036338
O	      4.24808      6.18355      8.31952        -0.098534      0.109529      0.010626
O	      6.31153      8.26927      8.52465        -0.077501      0.042873      0.051846
O	      6.41034      6.28879     10.45623         0.028975      0.034618      0.001295
O	      8.24343      8.13954     10.40325        -0.006872      0.095255      0.120512
