# total energy = -210.20109241 eV
 
CRYSTAL
PRIMVEC
-0.050252 6.277071 6.246265 
6.100130 -0.011230 6.206605 
4.061439 4.152970 -0.002124 
PRIMCOORD
36 1
Li	      0.01368      0.02584      0.03235        -0.118757      0.113564      0.022351
Li	      4.04348      2.11315      2.09924        -0.032664      0.099508      0.092947
Li	      8.01233      4.16986      4.09508         0.051690      0.034381      0.015185
Li	      6.07707      2.19356      4.17721        -0.067267      0.028407      0.078280
Li	      0.00319      2.04748      2.04571         0.017530     -0.026962     -0.047964
Li	      6.09449      6.10268      4.16264         0.001851      0.009466      0.021111
Li	      4.15157      4.18350      4.11760        -0.034978      0.034259      0.002115
Li	      6.07134      4.13229      6.07331         0.058435     -0.069809     -0.106293
Li	      4.00141      6.23490      6.26411         0.032373     -0.041746     -0.024589
Mn	      2.12234      4.10274      2.05988        -0.015481      0.127056     -0.151002
V	      4.01637      8.25515      4.22588         0.211765      0.832052      0.841820
Cr	      6.03788      6.24558      8.26874         0.104595      0.055586     -0.030572
Co	      8.03032      2.04834      6.22443        -0.211120      0.153014      0.145049
Co	      4.12523      2.11228      6.07421         0.054767     -0.122069     -0.172993
Co	      2.02272      4.20385      6.26034         0.304481     -0.137952     -0.120354
Co	      4.03856      4.16766      8.27069        -0.000510     -0.037585     -0.179640
Cu	      6.05490      4.18943      2.14336        -0.124905      0.135239      0.097357
Cu	      1.98842      6.26652      4.22053         0.129962     -0.139032     -0.088243
O	      3.98181      6.43506      4.14613        -0.297005     -0.886955     -0.032954
O	      2.03301      2.23585      2.08215         0.031929     -0.316927     -0.038363
O	      3.97534      4.15414      2.13256         0.466218      0.000120      0.000253
O	      4.07152      2.05138      4.33656        -0.017433     -0.002816     -0.038807
O	      6.06911      4.17899      4.02009         0.035629     -0.076896     -0.064371
O	      6.04338      2.10165      6.18482         0.184591     -0.016027      0.058345
O	      8.11023      4.13791      6.38183         0.007724     -0.040237     -0.015744
O	      1.96268      4.26075      4.18798        -0.051212      0.008008     -0.026575
O	      3.94532      4.16458      6.35656        -0.139634      0.083558      0.107238
O	      6.17233      6.41661      6.24722        -0.263468      0.130895      0.112469
O	      6.03618      4.23717      8.36094        -0.025687     -0.057669      0.453548
O	      8.07592      6.26820      8.09681        -0.014020      0.100775      0.160441
O	      1.97111      6.20833      6.44332         0.013980     -0.142475     -0.081331
O	      4.08561      8.34315      6.14067        -0.105133     -0.014904     -0.761708
O	      4.06890      6.07939      8.31041        -0.211900     -0.065485      0.009731
O	      6.16951      8.23588      8.17135         0.035283     -0.018796     -0.037948
O	      6.11607      6.09332     10.27180        -0.044607      0.411902     -0.138827
O	      8.13014      8.25621     10.27596         0.032979     -0.143448     -0.059961
