# total energy = -204.87361026 eV
 
CRYSTAL
PRIMVEC
0.011017 6.223460 6.255448 
6.199634 0.008999 6.257574 
4.100960 4.117936 0.037555 
PRIMCOORD
36 1
Li	      4.14262     10.30852      6.32669        -0.005412     -0.036193      0.033074
Li	      2.09358      8.25113      6.30122         0.027197     -0.008112      0.039489
Li	      4.12271      8.28098      8.34384         0.037388      0.125442     -0.124633
Li	      4.18767      6.14318      2.18467        -0.001390      0.050351     -0.009545
Li	      2.05441      2.07261      4.11815        -0.062346      0.100413     -0.010174
Li	      4.11187      4.15728      4.12351        -0.103566      0.124721      0.008998
Li	      6.10370      8.31544      6.28546        -0.092733      0.007975     -0.008427
Li	      8.19311      8.34343      8.42101         0.045592     -0.109618     -0.049574
Li	      6.11906      6.24822      8.37243         0.067230     -0.044658     -0.022542
Mn	      2.04905      0.03238      2.04217        -0.662913     -0.105506      0.110863
V	      8.16449      6.30295      6.35602         0.182438      0.066486      0.307313
Cr	      2.13263      4.05750      2.11624        -0.018114     -0.168035      0.380449
Fe	      4.09815      8.25511      4.20671         0.418096     -0.209789     -0.480339
Cu	      4.15587      6.20854     10.40067         0.174747     -0.158320     -0.026884
Cu	      6.18554      8.28460     10.42597         0.116192     -0.115838     -0.007614
Ni	      6.21048      4.11732      6.30149        -0.080764     -0.036474      0.267960
Ni	      2.05048      6.21728      4.24390        -0.039524     -0.087439     -0.174071
Ni	      4.11970      6.23190      6.26324         0.125759      0.092093     -0.255033
O	      6.15294      8.42753      8.49753         0.042615      0.182662     -0.434705
O	      2.08512      2.03073      2.07963         0.056287     -0.151203      0.001188
O	      4.17516      4.11614      2.14190         0.220649      0.004940      0.018412
O	      4.14021      1.95568      4.42498        -0.003355      0.038537     -0.345587
O	      6.26570      4.15372      4.10619        -0.097007     -0.091315     -0.027393
O	      6.05039      2.10246      6.12756        -0.152666     -0.103195      0.321922
O	      8.21695      4.24842      6.42612         0.097172      0.057122     -0.735959
O	      2.00952      4.19716      4.09813         0.441237      0.011585     -0.077924
O	      4.05970      6.31566      4.24819        -0.021757     -0.640469      0.082513
O	      4.15947      4.00137      6.27625        -0.164884      0.142720     -0.022537
O	      6.31022      6.18150      6.30218        -0.083823      0.104396      0.056464
O	      6.31145      4.13005      8.45291        -0.011511     -0.010626     -0.513840
O	      8.29074      6.11866      8.21314         0.009719      0.025037      0.020749
O	      2.07930      6.19719      6.38045         0.052110     -0.030725      0.012774
O	      4.12217      8.25646      6.04154         0.039521     -0.032078      1.048158
O	      3.98249      6.24417      8.23032         0.219919      0.042949      0.622137
O	      6.17376      6.10823     10.39232        -0.040622      0.871637      0.018580
O	      8.30312      8.29042     10.43216        -0.731481      0.090525     -0.024261
