# total energy = -231.41193749 eV
 
CRYSTAL
PRIMVEC
0.023032 6.342791 6.353686 
6.386886 0.045319 6.331732 
4.280110 4.235675 0.007704 
PRIMCOORD
36 1
Li	      4.41371     10.53262      6.50780         0.051297      0.019221     -0.015827
Li	      6.27448      4.28607      2.05049         0.009307      0.009934      0.010811
Li	      4.28550      0.04925      4.25057         0.007245     -0.029141      0.029977
Li	      4.31595      6.23329      2.23729        -0.005661     -0.026305      0.016634
Li	      2.29519      4.16648      2.21238         0.017263     -0.036447      0.014988
Li	      2.12657      2.21828      4.11386         0.001421     -0.044688     -0.009460
Li	      4.11656      4.29161      4.12395        -0.030810      0.014130      0.022037
Li	      2.19551      6.23692      4.25321        -0.025187     -0.006454     -0.009207
Li	      2.09204      4.37900      6.26121        -0.018192      0.039688     -0.058814
Mn	      4.28346      2.21803      2.18256         0.001281      0.028863     -0.028620
Mn	      6.43417      8.41758     10.60553         0.168238      0.020572     -0.240431
Mn	      4.25989      2.12000      6.30108         0.027657      0.040732     -0.036732
Mn	      6.41584      6.36508      8.44978        -0.012812      0.033986      0.067615
V	      6.44152      4.24369      6.28760        -0.095228     -0.021009     -0.181739
V	      8.50744      8.53381      8.51394        -0.268075     -0.016498      0.142846
Fe	      2.15999      2.11101      0.09193        -0.033463     -0.020842     -0.214951
Fe	      0.19116      4.19734      4.17589        -0.254481      0.031036     -0.089291
Fe	      4.19426      6.36884      6.21951         0.080114     -0.011361      0.003277
O	      2.33715      2.09541      2.05135         0.032544      0.004888      0.105486
O	      4.28709      4.09646      2.13664         0.010194     -0.026633      0.006800
O	      4.30375      2.10069      4.33716        -0.091651      0.000150      0.156813
O	      6.37560      4.28048      4.52317         0.021657     -0.019738      0.200005
O	      6.48100      2.22032      6.41707        -0.069469      0.018264      0.135261
O	      8.40052      4.21910      6.39091         0.002655      0.097031      0.022404
O	      2.05740      4.23536      4.23389         0.223365      0.005183     -0.027690
O	      4.30436      6.42824      4.28073        -0.008992     -0.084126     -0.084624
O	      4.35011      4.32275      6.44652         0.036348     -0.082765      0.039163
O	      6.35984      6.25812      6.48090        -0.004033     -0.023788     -0.020475
O	      6.29718      4.20685      8.39667         0.009801     -0.012216     -0.062774
O	      8.41281      6.54531      8.33252         0.055307     -0.009154     -0.070458
O	      2.23398      6.47234      6.31567        -0.099410     -0.086160      0.038573
O	      4.21476      8.42756      6.25052         0.081989      0.073568      0.078427
O	      4.37935      6.39561      8.37010        -0.016282     -0.025199      0.028555
O	      6.34015      8.53305      8.44719        -0.015529      0.062561     -0.069485
O	      6.41008      6.27699     10.38006        -0.011683      0.042580     -0.029678
O	      8.54838      8.54801     10.49379         0.223274      0.040136      0.130585
