# total energy = -233.22500392 eV
 
CRYSTAL
PRIMVEC
0.004230 6.335056 6.307980 
6.328993 0.007299 6.304902 
4.230028 4.232101 -0.005880 
PRIMCOORD
36 1
Li	      8.34746      2.23737      6.26167         0.013686     -0.048599     -0.004838
Li	      8.46303      4.16634      4.34653        -0.016311      0.003446     -0.007920
Li	      6.33911      2.12002      4.34055        -0.022074      0.017490      0.016150
Li	      6.34329      2.20265      8.28606         0.045976      0.016309      0.003980
Li	      8.42209      4.17792      8.29753         0.037417     -0.019669      0.022296
Li	      8.55947      6.23482      6.31362         0.008101     -0.007732      0.036896
Li	      6.49266      4.09813      6.32610         0.007798     -0.012011      0.032921
Li	      6.31308      8.43883      6.30109        -0.012793      0.050616     -0.011991
Li	      4.27795      4.20056      8.43291        -0.017706      0.043349     -0.068836
Mn	     10.45463      4.32974      6.28916         0.052624     -0.015478      0.032823
Mn	      2.16136      6.28202      8.37047        -0.006827     -0.040749      0.010898
Mn	      4.24026      8.44170      8.42053         0.045640      0.024953     -0.018739
Mn	      6.29543      4.25809     10.46769         0.068280      0.161775      0.013708
Mn	      8.42639      6.38158     10.51543        -0.034729     -0.020636      0.002653
V	      4.24332      4.20937      4.34749        -0.003811     -0.037056     -0.026524
V	      6.40277      6.34571      8.35267        -0.082259      0.093238     -0.038328
Fe	      6.39308      6.29187      4.27829         0.007223      0.019423      0.046624
Co	      4.22074      6.40220      6.24886        -0.057070     -0.025049      0.071990
O	      2.29517      2.06051      2.24228        -0.029790      0.055388     -0.021820
O	      4.23098      4.07757      2.27635        -0.025294     -0.054792      0.036580
O	      4.12386      2.25591      4.29932         0.075566      0.045884      0.038403
O	      6.22718      4.26751      4.23149         0.022157     -0.041162      0.092555
O	      6.32293      1.99001      6.37017         0.030309      0.010596     -0.011535
O	      8.56900      4.24441      6.31783        -0.016975     -0.041316     -0.002596
O	      2.11110      4.26720      4.19525         0.007868      0.040009     -0.036627
O	      4.33181      6.24266      4.08800        -0.043673     -0.013394      0.080764
O	      4.17170      4.31259      6.13069        -0.008960      0.011098     -0.015990
O	      6.26277      6.33760      6.32101         0.068208      0.013574      0.108455
O	      6.29421      4.39208      8.49464         0.028026     -0.225738     -0.052832
O	      8.22793      6.42564      8.45461        -0.011895      0.010903     -0.022146
O	      2.04931      6.34294      6.21932        -0.002915      0.025688     -0.131101
O	      4.21921      8.54125      6.14584        -0.007810      0.028215     -0.066940
O	      4.34068      6.46072      8.36706         0.036361      0.056084     -0.018525
O	      6.19792      8.39152      8.35378        -0.028604     -0.088591     -0.014197
O	      6.28354      6.38394     10.34790        -0.009743      0.000752     -0.053678
O	      8.58085      8.33011     10.47761        -0.116000     -0.036818     -0.022531
