# total energy = -90.77330828 eV
 
CRYSTAL
PRIMVEC
0.000350 2.082559 2.085990 
8.547811 -4.180281 4.188500 
2.118376 2.077787 -4.166979 
PRIMCOORD
16 1
Li	      2.39484      1.93644      0.14391         0.066406     -0.019697      0.022831
Li	      4.33376      2.01079     -2.01564        -0.026941     -0.042289      0.050887
Li	      4.13351     -0.03605      0.03135        -0.016492      0.069878     -0.073584
Li	      6.16650      0.09142      1.99756         0.010762      0.013365     -0.010256
Mn	      0.10512     -0.02131      0.01808         0.146186      0.002124     -0.002733
Mn	      6.38159     -2.04171      4.13155        -0.094163     -0.025603      0.032730
Ni	      6.26461      2.11363     -0.02314        -0.054026     -0.047247      0.030159
Ni	      8.55849     -2.06928      2.07253        -0.009618      0.002758     -0.005798
O	      2.04949      2.20362     -2.21297         0.086604      0.064870     -0.061642
O	      6.62924      0.05625     -0.05372         0.064147     -0.066894      0.063188
O	      6.52667     -2.13664      2.14091        -0.056723      0.023563     -0.049483
O	      8.69235      0.00375      2.08395         0.054216      0.052677     -0.041777
O	      8.41609     -2.11197      4.20091         0.012855     -0.121026      0.128830
O	      1.89731      0.01701     -0.02192        -0.166553      0.017327     -0.011620
O	      4.29372      1.98664      0.09231        -0.030704      0.003189      0.008333
O	      4.24340     -0.06060      2.16056         0.014043      0.073005     -0.080065
