# total energy = -218.13877243 eV
 
CRYSTAL
PRIMVEC
-0.004470 6.159211 6.228852 
6.360750 -0.015529 6.239891 
4.241308 4.114495 -0.011187 
PRIMCOORD
36 1
Li	      6.31362      0.06972      6.16729        -0.001001      0.010493     -0.067978
Li	      6.36408      4.12861      2.10345         0.017266     -0.048321     -0.013769
Li	      4.37025      6.17593     10.39581         0.098220     -0.050535      0.019415
Li	      6.36532      8.11687     10.42029         0.077829     -0.026725      0.002153
Li	      4.24272      6.13488      2.07207        -0.094058      0.027344     -0.017004
Li	      4.25560      2.01918      6.20672         0.009746     -0.048971      0.079260
Li	     10.53773      8.23525     10.38732        -0.046658      0.034135     -0.010877
Li	      8.40666      6.20104     10.36024        -0.062701      0.021869     -0.002172
Li	      4.26529      6.15256      6.20945        -0.037872      0.011820      0.033344
Ti	      6.24550      8.32838      6.25635        -0.149493      0.385216      0.266033
Cr	      2.10403      8.16269      6.18924        -0.019658     -0.051983     -0.248046
Fe	      8.49725      4.13959      8.27839        -0.302472      0.409189      0.010459
Fe	      6.31800      6.13277      4.12919        -0.030768     -0.041062     -0.066531
Fe	      4.25063      4.13371      4.14554         0.010488      0.006643     -0.001608
Fe	      6.33223      4.03235      6.20767         0.084769      0.019389      0.127986
Fe	      8.52596      8.24565      8.46268         0.067964     -0.103087      0.025959
Cu	      4.23749      8.15786      8.34135         0.084068     -0.182092     -0.146547
Ni	      6.38010      6.16095      8.43383         0.033619      0.140732     -1.319702
O	      6.37265      6.15366     10.26715        -0.016925      0.028437      0.889791
O	      2.01309      2.11494      2.04040         0.112934     -0.112466      0.020571
O	      4.09429      4.03568      2.13477         0.155314      0.001359     -0.013858
O	      4.11991      2.09035      4.07464        -0.078854      0.009446      0.075976
O	      6.27637      4.13583      4.18943        -0.010698     -0.013566      0.018468
O	      6.47895      2.08549      6.20276         0.015240     -0.086150     -0.007879
O	      8.40548      4.00561      6.28208         0.004879      0.013838     -0.054281
O	      2.14703      4.07989      4.23356         0.037068     -0.084778      0.051030
O	      4.34440      6.08604      4.13738         0.015181      0.121122      0.002408
O	      4.23094      4.08205      6.22425        -0.045652     -0.008773     -0.013932
O	      6.37214      6.22010      6.19565         0.014537     -0.015869      0.007204
O	      6.33716      4.15017      8.23843        -0.002152     -0.503198     -0.066822
O	      8.39204      6.13321      8.28192         0.297794      0.006943      0.220581
O	      2.10039      6.10103      6.23892         0.047195     -0.263908      0.041081
O	      4.31701      8.22107      6.30503         0.019744     -0.030933     -0.062066
O	      4.38703      6.13511      8.30029        -0.226737      0.039720      0.274857
O	      6.54533      8.21104      8.17890        -0.063659      0.402293     -0.207264
O	      8.52812      8.19334     10.39553        -0.014497     -0.017568      0.153760
