# total energy = -205.92177077 eV
 
CRYSTAL
PRIMVEC
0.036421 6.233534 6.124682 
6.317425 0.049170 6.112168 
4.251156 4.187103 -0.006884 
PRIMCOORD
36 1
Li	      6.17968      0.15663      6.04555         0.068474      0.070578      0.087684
Li	      8.37172      2.19501      6.09481        -0.064893     -0.034403      0.034036
Li	      4.15953      2.12515      2.02725        -0.058851      0.021134      0.041999
Li	      6.25574      2.14879      4.16677        -0.041881      0.031517      0.139699
Li	      2.17935      4.01114      1.94473         0.041501     -0.043186     -0.007359
Li	      2.18090      2.12696      4.14346         0.018665     -0.022059     -0.033376
Li	      4.35517      2.04140      6.09477         0.058725      0.023001     -0.069189
Li	      6.38109      4.18402      6.07434        -0.052700     -0.049793     -0.045919
Li	      6.37170      8.29883      6.09211         0.000720      0.026787      0.008382
Ti	      6.25265      4.26586      2.05507        -0.510223      0.371321      0.002740
Mn	      4.23440      4.21693      8.17721        -0.076708      0.079966     -0.262263
Cr	      2.16296      6.22228      4.10548        -0.193003      0.257578     -0.110396
Co	      8.42782      4.31463      4.19671        -0.144602      0.380600      1.007765
Cu	      4.20241      4.07636      4.10643         0.048155     -0.094253     -0.023120
Cu	      0.07883      4.14302      4.11447         0.096691     -0.116940      0.042296
Cu	      4.31483      6.29515      6.11681        -0.118728     -0.085157      0.035417
Cu	      6.35812      6.34294      8.13710         0.113846      0.030881     -0.009542
Ni	      6.34332      2.10369      8.06843        -0.040780      0.053787      0.063729
O	      6.17606      6.29232      6.23866         0.171095     -0.013460     -0.066598
O	      6.20791      4.24603      8.29210         0.028313      0.240917     -0.211935
O	      4.31592      8.14926      5.98694         0.006578      0.261012      0.048490
O	      2.03894      1.97583      2.00783         0.206493     -0.375725      0.041202
O	      4.34545      4.11082      2.02078         0.379029     -0.101113     -0.359346
O	      4.19855      2.07775      4.09699         0.054077      0.356249     -0.075854
O	      6.33890      4.20600      3.99361        -0.183438     -0.080111     -0.199336
O	      6.34389      2.13819      6.22767        -0.021278      0.026478     -0.573762
O	      8.45227      4.23463      5.97660         0.070414     -0.257207     -0.077168
O	      2.18586      4.25908      4.01459        -0.121527     -0.197629      0.074387
O	      4.16289      6.15032      3.86983         0.030011      0.004243      0.392740
O	      4.30354      4.39494      6.23355        -0.009166     -0.100545      0.115685
O	      8.59302      6.48336      8.16049        -0.261458     -0.022279     -0.001426
O	      2.34618      6.25437      6.11692        -0.001720     -0.026857      0.132447
O	      4.09450      6.17342      8.41632         0.093391     -0.207656     -0.288772
O	      6.56365      8.41462      8.13612         0.130138     -0.059167      0.019533
O	      6.42161      6.31407     10.12904         0.253311     -0.127544     -0.031779
O	      8.50467      8.33148     10.09616         0.031331     -0.220964      0.158911
