# total energy = -233.48080210 eV
 
CRYSTAL
PRIMVEC
-0.013709 6.189174 6.365143 
6.257600 -0.012237 6.362945 
4.150453 4.103631 0.013899 
PRIMCOORD
36 1
Li	      6.26645      0.03330      6.35976        -0.018970      0.014962      0.011601
Li	      6.21930      4.09362      2.13392        -0.001125      0.032051      0.014320
Li	      4.18196      2.03739      2.19260        -0.037501     -0.010327      0.009040
Li	      6.24638      8.18255     10.53434        -0.033759     -0.032262     -0.014767
Li	      2.02562      2.08306      4.18112         0.058568     -0.005405     -0.023387
Li	      4.13100      8.14822      4.29117         0.032636     -0.014306      0.027987
Li	      2.12488      6.19141      4.29211         0.031732     -0.004188      0.044572
Li	      4.12503      6.20229      6.28967        -0.043442      0.013614     -0.091625
Li	      6.19530      6.22960      8.54049        -0.000991      0.002583     -0.002435
Ti	      6.20923      4.18086      6.24938         0.017440      0.118672     -0.301958
Ti	      6.05204      8.33245      6.37837        -0.296129      0.202632     -0.055874
Mn	      2.06957      4.13002      2.23187         0.099459     -0.085592     -0.032984
Cr	      4.29967      6.19275     10.55003         0.053016      0.246636      0.182609
Cr	      8.30364      8.21675      8.57145         0.000627     -0.156174     -0.125270
Co	      4.16003      4.12449      4.22752        -0.003808     -0.038103     -0.041318
Co	      4.17622      2.04856      6.28601         0.204651     -0.060254      0.330154
Co	      2.11365      8.13794      6.34607         0.118288     -0.050315      0.115197
Co	      4.15331      6.16865      2.14772         0.076658     -0.091456      0.073691
O	      1.96986      2.18188      2.06911        -0.107771      0.052322     -0.050967
O	      4.00554      4.21461      2.10576        -0.032241      0.081306      0.021703
O	      4.22153      2.01747      4.25447        -0.080512     -0.084323      0.144311
O	      6.30865      4.09019      4.37365        -0.024887      0.014816      0.300049
O	      6.24821      2.17208      6.51243        -0.528879     -0.081695     -0.069138
O	      8.22602      4.04858      6.22225        -0.125428     -0.004425     -0.020814
O	      2.10591      4.08974      4.42085        -0.017344      0.045167      0.135139
O	      4.17704      6.10484      4.06182        -0.043929     -0.004174     -0.045892
O	      4.22359      4.16467      6.48102         0.127223      0.065100      0.023174
O	      6.24308      6.10509      6.42046         0.361233     -0.020476     -0.123491
O	      6.30164      4.04006      8.40857        -0.094759      0.012348      0.014443
O	      8.43013      6.12641      8.46701        -0.030681      0.094665     -0.295940
O	      2.06006      6.10068      6.37044        -0.035638     -0.277475     -0.007116
O	      4.21939      8.18895      6.42445         0.356510      0.016063     -0.023755
O	      4.11502      6.09091      8.70309         0.059229      0.032848     -0.002738
O	      6.34674      8.19789      8.33929        -0.008052     -0.016170     -0.067459
O	      6.07909      6.17845     10.63861        -0.030664     -0.028416     -0.029358
O	      8.32344      8.28008     10.55998        -0.000760      0.019751     -0.021703
