# total energy = -222.81959574 eV
 
CRYSTAL
PRIMVEC
0.034540 6.060201 6.336440 
6.417288 0.012238 6.360868 
4.272993 4.050137 0.013503 
PRIMCOORD
36 1
Li	      8.68602      8.10069     12.57776         0.017740     -0.008160      0.004432
Li	      4.32211      8.09475      8.31492        -0.036041      0.037877      0.008252
Li	      6.62370      8.02321     10.56707        -0.066745      0.050373     -0.029550
Li	      8.48331      4.02211      8.42514        -0.032323     -0.053905      0.034384
Li	      6.40500      4.03232      6.40726        -0.058021     -0.041114     -0.044202
Li	     10.55964      8.11514     10.68312        -0.004461     -0.118584      0.031473
Li	      6.27417      8.12496      6.40778        -0.030052      0.010483     -0.004700
Li	      4.31007      6.15953      6.38470         0.059735      0.003773     -0.022775
Li	      8.58454      8.06219      8.55988         0.011025     -0.079018     -0.038014
Ti	      4.21102      4.10911      4.30731        -0.177238      0.106597      0.137753
Ti	      6.38041      6.06050      8.48219         0.124269     -0.062076     -0.150978
Mn	      2.18574      2.04176      4.24713         0.025107      0.131991     -0.008172
Cr	      2.22502      6.01518      8.44414         0.046705      0.042556      0.057568
Cr	      8.55794      6.07870      6.39435        -0.033084      0.097750     -0.009967
Cu	      4.25141      4.02280      0.04207        -0.021864      0.121799      0.067161
Cu	      8.63424      9.99685     10.56317        -0.169119     -0.119076     -0.040919
Cu	      6.45608      2.13042      8.45563         0.016209      0.090401     -0.013401
Cu	      8.49628      6.10269     10.65742         0.009005     -0.441460     -0.041789
O	      4.28635      8.24253      6.33658        -0.041879     -0.201933     -0.014869
O	      8.56165      7.95451     10.60565        -0.006925      0.583466     -0.025187
O	      2.26473      1.95914      2.35744         0.159701      0.102924      0.002855
O	      4.46983      4.13239      2.35183         0.025262     -0.009984      0.190751
O	      4.16077      2.13025      4.35135         0.222191     -0.022024     -0.040246
O	      6.44710      4.13738      4.19231        -0.020597     -0.177779      0.042918
O	      6.29395      1.90346      6.47970         0.074897     -0.002705     -0.094501
O	      8.73793      4.07938      6.25061         0.007383     -0.115925      0.016122
O	      2.30624      4.04176      4.19839         0.114760      0.012053      0.043915
O	      4.50703      6.07283      4.23419         0.017838      0.050067      0.127331
O	      4.36299      4.03343      6.18497         0.008484      0.080898     -0.122047
O	      6.51707      6.07767      6.26231        -0.024782      0.001819      0.091439
O	      6.42484      4.11153      8.37922        -0.047441      0.102155      0.021884
O	      8.36137      6.04670      8.38826        -0.269524     -0.040452      0.004900
O	      1.95980      6.07589      6.42985        -0.052618      0.037718     -0.014248
O	      4.31050      6.03631      8.48194         0.007525     -0.010614     -0.155664
O	      6.40839      8.03630      8.44174        -0.029605     -0.097039      0.027126
O	      6.33267      6.06208     10.36208         0.174485     -0.062854     -0.039033
