# total energy = -233.13300028 eV
 
CRYSTAL
PRIMVEC
-0.020071 6.475016 6.239947 
6.183544 0.004469 6.214755 
4.138345 4.315906 -0.013409 
PRIMCOORD
36 1
Li	      8.25701      2.34990      6.30772         0.011475      0.050028      0.026437
Li	      3.91657      2.29906      2.11881        -0.050912      0.034328      0.046680
Li	      8.22065      4.33690      4.24922         0.003309      0.033080     -0.063954
Li	      2.11692      4.15638      1.99830         0.009416      0.004395      0.026162
Li	      2.11254      2.09025      4.11294         0.027922     -0.020719     -0.042427
Li	      4.16188      4.29456      4.08000         0.006300     -0.009865     -0.026405
Li	      8.21774      6.33757      6.21243        -0.011095      0.013482     -0.009686
Li	      6.38520      4.35888      6.16207         0.024382      0.035895     -0.021747
Li	      8.26971      6.53724     10.36535        -0.007693      0.002650     -0.027504
Ti	      6.03792      2.25079      4.25610        -0.502414      0.133085      0.105417
Ti	      2.05271      4.28309      6.05263         0.059567     -0.056281     -0.408548
Mn	      4.13030      4.31367      8.30996         0.057509      0.009891     -0.050235
Cr	     10.25981      4.32751      6.17510         0.037084     -0.066129     -0.003457
Cr	      6.20699      6.47958      8.32904        -0.015953     -0.124385      0.072489
Fe	      4.19543      6.38517      2.19641        -0.260495      0.085646     -0.193946
Co	      4.08266      6.45194      6.11650         0.061687      0.008048      0.083462
Co	      2.06483      0.06305      2.11487         0.075853      0.244736     -0.082532
Cu	     10.25822      8.61051     10.37650         0.090364     -0.013786      0.056470
O	      1.96507      2.16088      2.09144         0.240848     -0.229036     -0.072214
O	      4.14067      4.40474      1.97234        -0.167297     -0.100473     -0.047480
O	      4.22434      2.19040      4.09962         0.435622      0.050140      0.020134
O	      6.21908      4.13483      4.11793         0.003079     -0.184602      0.100947
O	      6.20667      2.06350      6.15292         0.033082      0.032412     -0.048212
O	      8.33618      4.33420      6.22053        -0.058120     -0.014765      0.008880
O	      1.95962      4.29108      4.22964         0.089689     -0.016541      0.327929
O	      4.10883      6.37587      4.10638        -0.008022     -0.145869      0.205659
O	      3.97993      4.30621      6.34341        -0.044669      0.191121      0.052103
O	      6.16124      6.63085      6.32222        -0.089667      0.055721      0.019004
O	      6.06075      4.39216      8.31427         0.050314     -0.005730     -0.104431
O	      8.26167      6.69328      8.28946         0.003476      0.013571     -0.024570
O	      2.00958      6.27820      6.28463        -0.008103     -0.113507     -0.000880
O	      4.17736      8.71976      6.21689        -0.035707     -0.086710      0.099604
O	      4.18024      6.27930      8.23923         0.028275      0.014895     -0.054314
O	      6.31067      8.51830      8.33892        -0.050099      0.125860      0.019379
O	      6.21442      6.68439     10.35522         0.044758      0.101072     -0.004373
O	      8.28228      8.67043     10.20252        -0.083765     -0.051659      0.016160
