# total energy = -228.09571651 eV
 
CRYSTAL
PRIMVEC
-0.012100 6.240309 6.292955 
6.292365 -0.000656 6.281721 
4.207992 4.165744 -0.013348 
PRIMCOORD
36 1
Li	      2.18357      8.24546      6.29149         0.009008     -0.014270     -0.002376
Li	      4.32033      8.31520      8.26509         0.085850      0.010462     -0.023772
Li	      6.32332      8.29396     10.33729         0.039866     -0.015089     -0.011980
Li	      2.01624      4.12432      2.16200        -0.051363     -0.009644      0.016788
Li	      0.04125      4.16500      4.23099         0.029025      0.014965      0.016331
Li	      2.04564      6.24816      4.24975        -0.054272      0.009553      0.032084
Li	      6.18645      8.39465      6.35356        -0.039740      0.036912     -0.050646
Li	      4.16387      6.36504      6.30580         0.030897      0.086251     -0.010335
Li	      6.29808      6.30893      8.37604         0.030768      0.033225     -0.005687
Ti	      4.24372      6.10465     10.37858         0.175327     -0.484608     -0.196679
Ti	      8.32288      6.28514      6.36708        -0.094065      0.029012      0.167134
Mn	      4.22760     10.33176      6.28727        -0.021769     -0.124319      0.001054
Cr	      6.28444      2.08965      8.38578        -0.005817     -0.055248      0.056609
Cr	      2.09330      2.08784      4.17807        -0.075764      0.060148     -0.028206
Fe	      4.11366      4.16205      4.12957         0.121075     -0.019102     -0.068073
Cu	      2.13119      6.19607      8.29909         0.107292      0.083249     -0.101425
Ni	      6.33373      4.12437      6.32340         0.062308     -0.031155     -0.003219
Ni	      4.17561      4.19454      8.38417         0.092593      0.014925      0.002404
O	      6.38476      8.43305      8.35822        -0.091687     -0.074927     -0.047672
O	      1.98136      1.96550      2.19011        -0.045088      0.039308     -0.004543
O	      4.11637      4.20668      2.03651        -0.191285      0.028238      0.034360
O	      4.13599      2.09688      4.26367        -0.021062     -0.071204      0.036937
O	      6.36031      4.21755      4.27355        -0.004060     -0.009314     -0.005819
O	      6.18364      1.98940      6.36346        -0.094443     -0.061392      0.033066
O	      8.46504      4.26411      6.18262        -0.002123      0.116432     -0.026333
O	      2.20363      4.08204      4.16053        -0.192273     -0.068634      0.031681
O	      4.27618      6.15505      4.12705         0.024822      0.020135     -0.001482
O	      4.27101      4.05134      6.18986        -0.060698     -0.135783      0.006006
O	      6.41538      6.20835      6.22532         0.166127      0.075758     -0.006092
O	      6.25188      4.06542      8.32574         0.103908     -0.016145      0.114436
O	      8.41890      6.26875      8.26315        -0.025200     -0.075498     -0.186170
O	      1.88510      6.26606      6.26647        -0.042121     -0.018208      0.031900
O	      4.16617      8.48469      6.29170         0.010778      0.046943      0.003054
O	      4.29247      6.28090      8.51229         0.150519      0.106359      0.214412
O	      6.16807      6.25986     10.64204        -0.143679      0.024445     -0.053115
O	      8.37449      8.43834     10.46206         0.016348      0.448222      0.035367
