# total energy = -232.11293113 eV
 
CRYSTAL
PRIMVEC
-0.034210 6.152561 6.347912 
6.280713 0.001744 6.311350 
4.201209 4.091383 -0.012164 
PRIMCOORD
36 1
Li	      8.32164      8.14525     12.56026         0.044197     -0.066066     -0.017220
Li	      2.13568      6.14285      8.34400         0.004501      0.003235     -0.074697
Li	      6.34558      8.16779     10.58776        -0.021164     -0.054679     -0.024058
Li	      6.28893      6.13304      4.27907         0.024947      0.032269      0.030264
Li	      8.34003      6.20707      6.34373        -0.063906      0.054343      0.046879
Li	     10.32117      8.27444     10.61091        -0.010857      0.001535      0.008496
Li	      6.30240      8.18937      6.35217        -0.021613     -0.076293      0.019029
Li	      8.25802      8.18491      8.50952        -0.054912      0.026207      0.041379
Li	      6.29219      6.19152      8.43215        -0.034264      0.023251      0.060047
Ti	      4.33530      8.13724      8.41535         0.490622     -0.164278     -0.090844
Ti	      8.26547      4.09039      8.37847        -0.118591     -0.007805      0.274633
Mn	      4.25884      4.05731      4.23844        -0.029261     -0.061865     -0.080682
Mn	      4.20333      6.12145      6.30922        -0.055617      0.153828     -0.037989
Cr	      8.35539      4.05664      4.28262         0.025216      0.036957     -0.203256
Cr	      6.28716      2.03396      8.38310         0.022311     -0.065699      0.277645
Co	      6.23164      4.10173      6.34113        -0.030890      0.151548     -0.082679
Cu	      6.32211      6.18641     12.56964        -0.011432      0.049310      0.149355
Cu	      8.34283      6.23401     10.54928        -0.105450      0.010010      0.037277
O	      2.07331      2.15681      2.05234        -0.020709      0.118060     -0.055031
O	      4.13263      4.07700      1.92166        -0.056601      0.044745      0.196702
O	      4.13831      2.10189      4.06812        -0.045525     -0.080239      0.016129
O	      6.24776      4.05960      4.41913         0.042056     -0.135728     -0.729472
O	      6.22587      2.11524      6.43199        -0.025069     -0.415811     -0.087492
O	      8.17722      4.15107      6.33956         0.133536      0.016568     -0.019059
O	      2.23874      4.14693      4.01421         0.093586     -0.064828     -0.063041
O	      4.31987      5.97151      4.06577         0.108133      0.100900     -0.084788
O	      4.27858      4.16043      6.36296        -0.211464     -0.149728      0.036994
O	      6.13603      6.03919      6.36841         0.149456      0.667043      0.135197
O	      6.35297      4.05232      8.35670         0.338050     -0.147407      0.533634
O	      8.45517      6.06863      8.48321         0.019849     -0.092096     -0.153575
O	      2.27119      6.11378      6.20388         0.013601     -0.018763      0.107277
O	      4.20408      8.11238      6.45057        -0.039944     -0.067114      0.080078
O	      4.10940      6.26005      8.59642         0.037699      0.121539     -0.006265
O	      6.13831      8.22611      8.43963        -0.409786     -0.006480     -0.000276
O	      6.08028      6.15521     10.68591        -0.147274      0.041117     -0.289075
O	      8.34694      8.24632     10.51213        -0.033433      0.022414      0.048483
