# total energy = -242.48689457 eV
 
CRYSTAL
PRIMVEC
-0.007331 6.330539 6.261740 
6.287795 -0.021688 6.276007 
4.195159 4.233175 -0.017806 
PRIMCOORD
36 1
Li	      8.43850      8.47724     12.42776         0.021213      0.009315     -0.017995
Li	      2.10603      6.37014      8.32284         0.072871     -0.000293     -0.000484
Li	      4.15682      2.08587      2.08243        -0.062324      0.003301     -0.006416
Li	      8.35086      4.20361      4.29848        -0.022674     -0.014346     -0.083866
Li	      4.19807      4.16758      4.25092        -0.003392     -0.001055      0.052157
Li	      8.40560      6.22733      6.20167        -0.008116     -0.038597      0.017249
Li	      6.37864      4.21052      6.20943         0.059936     -0.015147     -0.002501
Li	      4.14031      8.39905      4.23401        -0.003439     -0.033779     -0.036783
Li	      8.41449      6.39383     10.47330         0.021727      0.034032     -0.008265
Ti	      4.27352      6.22009      2.06061         0.144127     -0.099522      0.092482
Ti	      6.18552      6.33029      8.41713        -0.384931      0.043380      0.047365
Mn	      8.37923      4.19453      8.33249         0.041441     -0.037808      0.073294
V	      6.22886      2.22278      4.20664        -0.023992      0.026666     -0.007262
V	      6.37334      6.23386      4.19535        -0.002946     -0.047304      0.011535
V	      4.20645      4.20869      8.37353        -0.091694      0.034834      0.022598
Cr	      6.26697      6.30108     12.46583         0.058368     -0.023071     -0.091441
Fe	      2.05078      4.26855      6.17059         0.029063     -0.027345      0.125289
Cu	      4.09354      6.39318      6.19475        -0.060501      0.041488      0.021564
O	      1.99719      2.07533      2.12624        -0.170637     -0.075083     -0.001587
O	      4.23549      4.34311      1.94224        -0.006534      0.194676      0.012060
O	      4.19512      2.12750      4.17227         0.026876     -0.058444      0.054009
O	      6.25263      4.21676      4.21558         0.015988      0.034473     -0.020779
O	      6.29768      2.03973      6.32036        -0.030000     -0.054075      0.098040
O	      8.50975      4.17494      6.24987        -0.023399      0.089371      0.039377
O	      2.12136      4.02874      4.23736        -0.049246      0.026627     -0.131203
O	      4.26636      6.32396      3.95448         0.003304     -0.008772     -0.285292
O	      4.05807      4.34851      6.45259         0.083102     -0.099419     -0.058461
O	      6.25271      6.38447      6.36443         0.085977      0.014233      0.030776
O	      6.20470      4.26221      8.34975         0.012706      0.091248      0.031475
O	      8.40132      6.37436      8.35807         0.030813      0.059881      0.002018
O	      2.05266      6.24240      6.22621        -0.113046      0.040268     -0.016986
O	      4.25887      8.52119      6.24141        -0.028333      0.011277     -0.028407
O	      4.33200      6.29949      8.45708         0.366606     -0.085951      0.051589
O	      6.31970      8.31979      8.35045        -0.027571     -0.069597      0.018190
O	      6.30480      6.41717     10.38285        -0.013690      0.026661     -0.037518
O	      8.23866      8.44351     10.30703         0.052346      0.007876      0.034179
