# total energy = -99.23136172 eV
 
CRYSTAL
PRIMVEC
-0.004580 2.117908 2.134655 
2.110189 -2.126069 0.003539 
13.281270 11.272421 0.028074 
PRIMCOORD
16 1
Li	      2.40486      0.30655      1.81383         0.009708      0.014545     -0.017429
Li	      2.08490      2.08997      0.04386         0.013590      0.007470     -0.004614
Li	      9.06424      4.90446     -4.99141        -0.017124     -0.011573      0.012110
Li	     10.70307      8.64425     -6.57853         0.014114      0.008051     -0.009270
Ti	      6.60176      4.52984     -2.43769         0.034351      0.036021     -0.038187
Ti	     13.14718      9.00846     -9.10534         0.011263      0.011144     -0.011935
Ni	      4.18019      2.08755     -2.10594         0.105887      0.100626     -0.099210
Ni	      8.82927      6.77685     -6.85234        -0.001527     -0.000737      0.000425
O	     11.13976      9.12209     -9.22914         0.090438      0.094270     -0.088690
O	      8.85209      6.80166     -4.75423        -0.081344     -0.077241      0.079445
O	     10.91011      6.74198     -6.81046         0.073850      0.071863     -0.075294
O	      6.49707      4.41153     -4.43927        -0.084941     -0.091579      0.096938
O	      4.42885      2.34543     -0.24277        -0.131016     -0.128557      0.122876
O	      4.55686      4.60759     -2.52467         0.075595      0.078540     -0.075861
O	     13.02900     11.00123     -8.96559        -0.114786     -0.116037      0.112321
O	      2.15704      0.04974     -0.05062         0.001942      0.003193     -0.003624
