# total energy = -243.30488356 eV
 
CRYSTAL
PRIMVEC
-0.051932 6.444530 6.246401 
6.499800 -0.008053 6.203955 
4.321175 4.255042 0.006539 
PRIMCOORD
36 1
Li	      2.14089      6.40722      8.26812         0.049230     -0.009399      0.008536
Li	     10.50431      6.63112      8.36346        -0.002939     -0.023109     -0.001946
Li	      8.42774      4.51456      8.30448         0.007591      0.014103      0.006699
Li	      8.54744      6.49820      6.49330        -0.040139      0.080097     -0.037602
Li	      6.55279      4.17067     10.14377         0.007195     -0.020519      0.064639
Li	      8.66254      6.44712     10.19481        -0.015307      0.046036      0.043979
Li	      4.40386      6.32448      6.16871         0.020721     -0.013285      0.011452
Li	      8.79434      8.32729      8.28531        -0.048729      0.084645      0.024788
Li	      6.71301      6.25372      8.29569        -0.031362      0.051707      0.045231
Ti	      4.33538      4.34555      0.14092         0.015397      0.188337     -0.020406
Ti	      4.28030      8.40540      8.28286         0.006959     -0.434161     -0.025588
Mn	      2.23633      4.26937      6.23522        -0.088368      0.000819      0.063061
Mn	      4.22587      4.39742      4.09048        -0.029041      0.057750     -0.081754
V	      2.13866      8.51625      6.28516        -0.037655      0.027645     -0.092171
V	      8.62692     10.65756     10.39492         0.007542     -0.242244     -0.027099
V	      6.45026      8.56473     10.34521         0.144448      0.051342      0.078581
Cr	      6.41607      6.42689      4.14179        -0.055127     -0.078103     -0.133150
Cu	      6.35435      4.41614      6.35343        -0.145837      0.001126     -0.111879
O	      2.36548      2.06903      2.05956         0.081474      0.003606      0.073779
O	      4.35563      4.12127      1.99126         0.036155     -0.083687     -0.205413
O	      4.31603      2.09475      4.03684        -0.040259     -0.022502      0.016352
O	      6.59557      4.23656      4.28077        -0.013024      0.071685     -0.064413
O	      6.57329      2.01271      6.15952         0.044459     -0.259737      0.115684
O	      8.85269      4.09589      6.17372         0.097047      0.014392      0.122193
O	      2.11479      4.14689      4.20930        -0.010407     -0.040573     -0.011045
O	      4.48129      6.41208      4.10259         0.044536      0.114387     -0.011089
O	      4.19865      4.31738      6.18455         0.109426     -0.012810      0.155186
O	      6.47224      6.43230      6.11521        -0.013370      0.024480      0.056086
O	      6.44182      4.31447      8.19760         0.053011     -0.053578      0.212480
O	      8.61314      6.41308      8.34096         0.006698     -0.033679     -0.017212
O	      1.93428      6.49679      6.22218        -0.061513     -0.073294      0.008845
O	      4.29365      8.64989      6.33233         0.014203      0.016108      0.130970
O	      4.23208      6.53043      8.37744         0.029564      0.456376     -0.134462
O	      6.26703      8.60920      8.36710        -0.124355     -0.023708     -0.188793
O	      6.29999      6.57413     10.49825        -0.022984      0.005164      0.012811
O	      8.50177      8.61038     10.49385         0.004763      0.114581     -0.087331
