# total energy = -240.11327091 eV
 
CRYSTAL
PRIMVEC
0.019944 6.094170 6.375398 
6.497987 -0.025685 6.419981 
4.315812 4.075998 -0.000141 
PRIMCOORD
36 1
Li	      8.56614      2.09144      6.44631        -0.023616     -0.027479      0.034715
Li	      4.26614      2.02649      2.12799        -0.002048     -0.008524     -0.034296
Li	      6.53508      1.99966      4.38812         0.018696      0.016691      0.042901
Li	      6.39278      2.10880      8.49371        -0.011390     -0.003514      0.019647
Li	      8.57476      4.08883      8.48313        -0.062937     -0.049627      0.035435
Li	      8.80399      6.06619      6.54444         0.040785      0.045784      0.018497
Li	      6.47471      4.03147     10.59621         0.004981      0.003992      0.010494
Li	      8.63282      6.16566     10.52213        -0.011750      0.013411      0.007480
Li	      8.74492      8.02135      8.57832         0.016657      0.051123     -0.026233
Ti	      2.17941      6.05026      8.44227         0.037563      0.083805     -0.089604
Ti	      4.22350      3.99163      4.23474        -0.323374     -0.035147      0.137793
V	      8.74168     10.01312     10.70795         0.063010      0.038529      0.062205
V	      4.33328      6.15516      6.39724        -0.011297     -0.006337      0.017934
V	      6.63464      6.05857      8.56233        -0.073304     -0.026008      0.007222
Cr	      6.49007      6.05755      4.24820         0.007479      0.133789      0.028247
Fe	      6.49575      0.06092      6.44827        -0.002003     -0.143893     -0.051720
Fe	      6.46347      8.14420      6.42842         0.050559     -0.052862     -0.166774
Cu	      6.56974      3.93193      6.57761        -0.020495      0.018693      0.024994
O	      2.19199      1.88825      2.26579         0.016760     -0.157614     -0.017048
O	      4.50060      4.03834      2.28615         0.153645      0.010660      0.104983
O	      4.21093      2.01868      4.26138        -0.041785      0.124948     -0.025482
O	      6.51719      4.06253      4.18180        -0.061095     -0.022002     -0.157141
O	      6.51246      2.01646      6.46516        -0.015226      0.023976     -0.016380
O	      8.72246      4.07159      6.21928         0.005743      0.013736     -0.026455
O	      2.33717      4.01249      4.19150         0.340400     -0.074925     -0.040567
O	      4.44981      6.00060      4.33628         0.018791     -0.090169     -0.027766
O	      4.21101      4.12076      6.21192         0.046585     -0.032831     -0.232084
O	      6.38031      6.00638      6.33444         0.024642      0.028896     -0.092412
O	      6.48042      4.14076      8.55158        -0.017079      0.039779      0.090121
O	      8.53212      6.09136      8.54855         0.006417      0.000077     -0.004315
O	      2.25038      6.19250      6.48488        -0.007692      0.006579      0.307759
O	      4.43658      8.14048      6.35760        -0.099819     -0.060695      0.002448
O	      4.29520      6.08010      8.50528        -0.061437     -0.017469      0.003918
O	      6.50496      8.14844      8.53851        -0.015389      0.179882      0.054406
O	      6.33768      6.11297     10.60134        -0.001079     -0.014730     -0.015564
O	      8.64514      8.26159     10.62996         0.010103     -0.010525      0.012643
