# total energy = -241.49117801 eV
 
CRYSTAL
PRIMVEC
0.032698 6.240327 6.374180 
6.274070 0.019373 6.387512 
4.178582 4.164981 0.017093 
PRIMCOORD
36 1
Li	      8.27800      2.18853      6.52729        -0.024499      0.025172     -0.034468
Li	      4.11231      2.01054      2.17571        -0.008583      0.026282     -0.031958
Li	      8.28816      4.19867      4.30708        -0.036376      0.022883      0.153934
Li	      6.32488      8.35746     10.61388         0.016500     -0.040519      0.134676
Li	      6.44582      2.16064      8.40454        -0.005896      0.022728      0.012061
Li	      2.04377      3.97687      2.10263         0.013331     -0.026724     -0.031292
Li	      2.13286      2.04790      4.13225        -0.003645     -0.013489      0.002361
Li	      6.37598      4.12167      6.41536        -0.024163     -0.036409      0.003451
Li	      8.33450      8.38926      8.56804         0.077503     -0.031808     -0.005447
Ti	      4.27057      4.03162      4.15724         0.092971     -0.217855      0.177652
Ti	      6.20232      4.19778     10.53350        -0.172517      0.145983     -0.136776
V	      4.11862      4.17385      0.10596        -0.007177      0.141516     -0.024691
V	      8.33757      6.24703      6.47932         0.137747      0.103931     -0.057195
V	      8.38909      6.28137     10.53387        -0.039767      0.093825      0.544848
Cr	      2.17554      6.29554      8.50584        -0.131942      0.014527     -0.096609
Cr	      4.28087      6.25712      6.40362         0.042226     -0.085591     -0.242580
Co	      6.30417      8.29728      6.46908         0.192111      0.179484     -0.166042
Cu	      6.25258      6.34665      8.54538        -0.230726     -0.071131      0.020526
O	      2.11404      1.98982      2.12040         0.072643     -0.000437      0.028921
O	      4.25089      4.17019      2.20896         0.029544     -0.037107      0.204381
O	      4.16969      2.20230      4.33425         0.070664      0.227529     -0.060284
O	      6.16499      4.15694      4.14616        -0.076703     -0.054112     -0.053690
O	      6.15182      2.03811      6.43816         0.123396     -0.128722      0.067089
O	      8.42719      4.25953      6.43017        -0.122737     -0.194342      0.043188
O	      2.16147      4.26529      4.25841        -0.074538     -0.216549      0.390103
O	      4.18079      6.29726      4.33909         0.043943      0.026834     -0.013369
O	      4.22296      4.19343      6.20606         0.090237      0.206893     -0.115553
O	      6.28470      6.20175      6.29810        -0.194619      0.331875      0.011790
O	      6.30473      4.23965      8.69226        -0.034397     -0.064178      0.225355
O	      8.25415      6.31281      8.60372         0.015440      0.038304     -0.517735
O	      2.14845      6.27185      6.36602         0.077107     -0.305269      0.133123
O	      4.25069      8.29630      6.27023        -0.139977     -0.013841      0.019379
O	      4.18394      6.23213      8.37756         0.314239      0.067126      0.115995
O	      6.30155      8.36315      8.47825        -0.082253     -0.166267     -0.641357
O	      6.33265      6.14613     10.82128        -0.115934     -0.075935     -0.023854
O	      8.49465      8.28936     10.67030         0.116844      0.105392     -0.035933
