# total energy = -237.31114637 eV
 
CRYSTAL
PRIMVEC
0.010022 6.384305 6.208707 
6.321407 0.004052 6.214848 
4.213291 4.259141 0.003769 
PRIMCOORD
36 1
Li	      6.27648      6.37025     12.33883        -0.136526     -0.013417     -0.006434
Li	      8.47058      8.55632     12.35342         0.038967      0.082206     -0.066805
Li	      6.28819      2.04380      4.24383         0.010182     -0.013182      0.045597
Li	      2.13021      4.27411      2.15054        -0.020837      0.047548     -0.046183
Li	      4.05517      4.28039      4.23041         0.009813      0.010793      0.026635
Li	      4.22920      2.13245      6.10117         0.022420     -0.035323     -0.021680
Li	      2.13313      6.26391      4.23958         0.004851     -0.027929      0.021670
Li	      2.09556      4.24291      6.06290        -0.041112     -0.049185      0.071477
Li	      4.24819      6.40805      6.07860         0.018236      0.049588      0.003533
Ti	      6.40882      4.21773      6.06093         0.498381     -0.161671     -0.206544
Ti	      8.39263      8.45960      8.27534         0.129112     -0.084490      0.015667
V	      2.10742      6.38679      8.11273        -0.053290     -0.029243      0.262933
V	      4.17047      2.20543      2.03284         0.137983     -0.013207     -0.021096
V	      4.20516      6.36048      2.12444        -0.230304      0.070173     -0.146244
V	      6.34437      6.38223      8.29787        -0.106378     -0.066951      0.150379
Co	      4.27670      0.03617      4.22534        -0.124052     -0.016249     -0.277892
Co	      4.29916      8.53624      4.29408        -0.040222      0.158678     -0.076596
Ni	      2.10734      2.21277      4.21166         0.019995     -0.171193      0.028443
O	      2.05824      1.94983      2.09787         0.078734      0.049983     -0.062972
O	      4.35833      4.24817      2.08355         0.096723     -0.062203      0.003094
O	      4.15522      2.07216      4.03922         0.102358     -0.429380      0.177973
O	      6.33498      4.25428      4.13950         0.042483     -0.014029      0.130667
O	      6.31523      2.27862      6.30416         0.059112      0.117284      0.053079
O	      8.29482      4.26555      6.28982        -0.313754      0.019573      0.082453
O	      2.08055      4.21835      4.12508        -0.004468      0.076554     -0.013239
O	      4.23248      6.38949      4.06802        -0.061111      0.066929      0.036501
O	      4.34402      4.28140      6.34446        -0.019460      0.012687      0.194501
O	      6.34058      6.24176      6.30270        -0.001735      0.013688      0.049862
O	      6.22433      4.26076      8.22970        -0.081815      0.068836     -0.055000
O	      8.40872      6.52867      8.29752         0.073759      0.163975      0.047186
O	      2.13951      6.37294      6.38869         0.020079     -0.031479     -0.216403
O	      4.19295      8.53136      6.32377         0.006736     -0.023218     -0.013415
O	      4.22407      6.40796      8.26025        -0.105189     -0.079463     -0.064408
O	      6.38497      8.56335      8.27440         0.046680     -0.021658     -0.031463
O	      6.34462      6.41889     10.26871        -0.095711     -0.105158     -0.052046
O	      8.49121      8.60901     10.19939         0.019360      0.440133     -0.023227
