# total energy = -251.48351463 eV
 
CRYSTAL
PRIMVEC
0.035028 6.327082 6.372815 
6.352949 0.016018 6.392659 
4.238340 4.234177 0.007860 
PRIMCOORD
36 1
Li	      4.21810      4.28959      0.11835         0.052368     -0.013060     -0.179424
Li	      2.11521      2.14715      0.12861         0.036414     -0.033837     -0.355712
Li	      4.10259      2.21571      2.10414         0.209529     -0.028019     -0.029112
Li	      6.42737      8.42002     10.69860         0.110873     -0.159587      0.031102
Li	      4.29656      6.27194      2.12843        -0.330645      0.091487      0.162305
Li	      2.28326      4.06075      2.04298        -0.058629      0.279047      0.051439
Li	      2.13226      2.14406      4.12987        -0.141877      0.112139      0.327626
Li	      8.51989      6.30096      6.47346        -0.050083      0.002659      0.083984
Li	      4.22965      6.34996      6.32254        -0.022047     -0.015868     -0.226956
Ti	      4.28699      0.19644      4.33253         0.773972     -0.000040      0.079931
Ti	      6.33939      4.07334      6.36006        -0.044081     -0.180634      0.342255
Ti	      6.22849      8.34999      6.39918        -0.236914      0.185124     -0.480742
Mn	      0.05731      4.14356      4.19592         0.010978     -0.132022      0.015748
V	      2.15672      6.36408      4.30714        -1.243565     -0.105193      0.149434
V	      2.05325      0.13925      2.07664        -0.067213      0.323464     -0.518063
V	      4.32059      4.16926      4.27588        -0.109386      0.323711      0.087728
Cr	      8.48957      8.46913      8.51737         0.155715     -0.360859      0.088840
Fe	      6.36755      6.38438      8.45061         0.119417     -0.083676      0.177721
O	      2.13770      2.03387      2.10594        -0.023987     -1.172758      0.019118
O	      4.34566      4.21399      2.18651         0.319337     -0.044478     -0.309634
O	      4.30515      2.02818      4.25441        -0.090356     -0.230936     -0.091577
O	      6.46304      4.27804      4.30201        -0.027347     -0.033309     -0.412765
O	      6.34040      2.27541      6.37051         0.071871      0.316893      0.027434
O	      8.35381      4.25829      6.27749        -0.116067     -0.081266      0.062964
O	      2.20599      4.25023      4.39039         0.122165     -0.308689     -0.083529
O	      4.10446      6.27588      4.27762         1.383142     -0.063027     -0.110493
O	      4.30221      4.23475      6.45274         0.099045     -0.040520     -0.018445
O	      6.36576      6.42527      6.35122         0.043530      0.073991     -0.048398
O	      6.28111      4.24092      8.36398         0.049455     -0.080954     -0.293216
O	      8.39592      6.46431      8.66736         0.055540      0.116076     -0.690012
O	      2.11734      6.22234      6.33541         0.026682      0.395298      1.600462
O	      4.40657      8.41784      6.40187         0.172036     -0.020236      0.214397
O	      4.23423      6.27157      8.63126        -0.318109      0.150036     -0.053391
O	      6.48726      8.56609      8.37636        -0.067389      0.495154      0.278830
O	      6.30063      6.35285     10.66517        -0.745558      0.089907      0.087018
O	      8.49197      8.50645     10.52778        -0.118812      0.233982      0.013134
