# total energy = -248.84185842 eV
 
CRYSTAL
PRIMVEC
0.028340 6.344295 6.339917 
6.296622 0.026024 6.342368 
4.190019 4.223486 0.025367 
PRIMCOORD
36 1
Li	      6.31102      0.15627      6.28837         0.032397      0.068583     -0.004021
Li	      4.19439      0.08304      4.22774        -0.027186     -0.008592     -0.036672
Li	      6.24307      2.09173      4.30208         0.022887     -0.049686     -0.005757
Li	      6.30692      2.15499      8.43640         0.072647      0.055897     -0.058825
Li	      6.32932      6.33343      4.27350        -0.005683     -0.006711     -0.052398
Li	      4.21986      4.17867      4.23965         0.009704     -0.032575     -0.041096
Li	      2.08935      6.32975      4.28592        -0.020344      0.014606      0.092977
Li	      2.14317      4.23079      6.31101        -0.021689      0.012922      0.034682
Li	      6.30058      6.37346      8.47540        -0.033641     -0.005888     -0.016093
Ti	      8.48743      4.39029      8.49249         0.188821      0.012722     -0.023759
Ti	      6.29189      4.41290     10.60607        -0.027478      0.425743      0.035425
Ti	      4.27426      6.30913      6.24374         0.032112      0.006748     -0.199724
Mn	      6.30822      4.20832      6.17955         0.027964     -0.026350     -0.034926
V	      8.40919      8.46343     12.63605         0.017920      0.019645     -0.057667
V	      6.24816      4.24787      2.20572        -0.028451      0.050184     -0.043196
V	      4.24607      2.07825      2.26493         0.007127      0.014303     -0.085234
Cr	      8.37301      8.42187      8.51070        -0.045108     -0.031094      0.021886
Ni	      4.23115      2.12804      6.22981        -0.098033      0.005009      0.014097
O	      2.21423      2.13992      2.06493        -0.112034      0.081876      0.151135
O	      4.10058      4.18505      2.18048        -0.230393      0.138195     -0.042305
O	      4.19890      2.10608      4.17917        -0.020884     -0.008276     -0.038506
O	      6.26752      4.27650      4.11116        -0.007646      0.006462      0.084019
O	      6.30338      2.11800      6.33484        -0.018342      0.004565      0.035787
O	      8.39450      4.25700      6.51898         0.073817      0.024309      0.111144
O	      1.99059      4.24217      4.05614        -0.040851     -0.022551     -0.065276
O	      4.18422      6.41724      4.40676         0.011262     -0.007351      0.226002
O	      4.16164      4.28608      6.44455        -0.045527      0.102210      0.067524
O	      6.20694      6.36186      6.36818        -0.144020      0.007895     -0.004592
O	      6.28824      4.21301      8.59668         0.004692      0.054210      0.072294
O	      8.39131      6.31581      8.40433         0.002705     -0.065651      0.130136
O	      2.23897      6.35073      6.44198         0.064653     -0.130168     -0.073896
O	      4.24178      8.34220      6.37996         0.161669     -0.026114     -0.092045
O	      4.17428      6.27517      8.39318         0.144539     -0.047094      0.023234
O	      6.31427      8.56644      8.48879         0.110015     -0.150130     -0.013166
O	      6.32564      6.23096     10.62423        -0.061267     -0.489657     -0.002082
O	      8.51715      8.44028     10.50111         0.003647      0.001804     -0.109106
