# total energy = -250.25966588 eV
 
CRYSTAL
PRIMVEC
0.027311 6.361381 6.370234 
6.356457 0.024078 6.373784 
4.242151 4.247924 0.011536 
PRIMCOORD
36 1
Li	     10.49613      4.24221      6.44392         0.001564     -0.011705      0.039862
Li	      4.20947      2.19453      2.10730         0.000516      0.055534     -0.005947
Li	      8.44506      4.32126      4.37009         0.009185     -0.011033      0.010562
Li	     10.58189      6.37297      8.50425        -0.018904     -0.013035     -0.051856
Li	      8.54571      4.27108      8.44339         0.049080      0.024061     -0.055267
Li	      8.45213      6.20895      6.37698         0.009280     -0.080744      0.017951
Li	      6.49146      4.30385      6.38933        -0.001723     -0.020627      0.009173
Li	      2.17642      6.30359      4.24876        -0.009675      0.040363     -0.031780
Li	      2.10418      4.24159      6.29881        -0.019534      0.039886      0.025051
Ti	      2.01632      0.14098      2.12711        -0.246394      0.173121     -0.024236
Ti	      6.32669      2.06753      4.36700        -0.116954     -0.079452      0.289399
Ti	      4.29436      4.17212      8.42546         0.083124     -0.301721     -0.172105
Mn	      0.15009      4.20888      4.24029        -0.042707      0.064537      0.000385
V	      8.48112      2.24709      6.35601         0.010755     -0.043422      0.012665
V	      4.17744      4.26328      4.26770         0.044689     -0.083415      0.060611
V	      4.28033      6.37413      6.40677        -0.095528     -0.082904     -0.156198
V	      6.34451      6.42895      8.46414         0.095263     -0.051987      0.061827
Cu	      2.20816      2.20329      4.24646         0.101101      0.117620     -0.068929
O	      2.13298      2.00731      2.07331        -0.006016     -0.153927      0.031807
O	      4.38810      4.25713      2.16448         0.200365      0.022459      0.002246
O	      4.42870      2.20762      4.27539         0.098197     -0.141268     -0.009311
O	      6.31050      4.10728      4.14112         0.066384     -0.109605     -0.029093
O	      6.46207      2.09637      6.24526        -0.076571     -0.015811     -0.191396
O	      8.48910      4.15585      6.39891        -0.028312      0.073059     -0.010996
O	      2.24007      4.31191      4.21801        -0.105713     -0.005150      0.014144
O	      4.22735      6.25325      4.34129         0.048700      0.054728      0.006710
O	      4.21468      4.33727      6.46847         0.003051     -0.053310      0.130382
O	      6.25788      6.39839      6.50327         0.094275      0.044328      0.018111
O	      6.20256      4.31038      8.51045        -0.140125      0.000942     -0.094202
O	      8.38532      6.52713      8.44068         0.086102      0.251652      0.028858
O	      2.21372      6.42340      6.52860         0.013100      0.031372      0.112613
O	      4.17118      8.39459      6.36514         0.061857      0.143625      0.048508
O	      4.24720      6.29748      8.50344        -0.102284      0.002649     -0.008941
O	      6.49058      8.55551      8.56429         0.001515     -0.008578      0.028196
O	      6.37407      6.49941     10.49446        -0.014505      0.138091      0.010069
O	      8.40244      8.51030     10.53695        -0.053159     -0.010334     -0.048875
