# total energy = -247.61037323 eV
 
CRYSTAL
PRIMVEC
0.000340 6.331272 6.183043 
6.388439 -0.003876 6.187413 
4.261903 4.226378 -0.005264 
PRIMCOORD
36 1
Li	     10.53891      4.27839      6.22819        -0.039595      0.031980      0.005225
Li	      8.42777      2.27968      6.24607        -0.041744      0.068809      0.007038
Li	      8.52006      4.21943      4.22452        -0.030771     -0.007627      0.000550
Li	      6.40231      2.11801      8.15293        -0.013443      0.014695     -0.016802
Li	      8.55217      4.16217      8.14819         0.045956     -0.005178      0.044341
Li	      6.51540      4.15704      6.23069         0.013453      0.007528      0.038570
Li	      6.40334      8.41311      6.19252         0.005447     -0.034097      0.016979
Li	      4.27815      6.33463      6.18286         0.009171     -0.000095     -0.001770
Li	      6.38855      6.32259      8.20426         0.032830      0.032451     -0.002191
Ti	      6.36846      6.23069      4.15414        -0.012982     -0.177342      0.210153
Ti	      4.26124      8.55122      4.27507         0.085378      0.157881      0.252757
Ti	      4.36350      4.25327      8.15459         0.235560      0.025062     -0.306368
V	      2.18207      6.27948      4.18785        -0.005713      0.018527      0.011761
V	      2.07935      6.32972      8.08721         0.080683     -0.034156     -0.017967
V	      8.54463      6.22707      6.22180        -0.010122     -0.031508      0.008075
Cr	      4.26355      8.42376      8.18968         0.028296     -0.066282     -0.073451
Fe	      6.41280      2.08462      4.19586         0.009737     -0.016756     -0.052005
Cu	      4.27594      4.27622      4.18704         0.122311      0.054503      0.066077
O	      2.23805      2.08190      2.09514         0.026632      0.008681      0.085411
O	      4.37930      4.07326      2.01332        -0.078910     -0.021032      0.064313
O	      4.12171      2.05718      4.05646        -0.089432     -0.010617     -0.107996
O	      6.42894      4.34248      4.00858         0.007376      0.164852      0.005068
O	      6.26860      2.14155      6.15720         0.030677      0.025439      0.124188
O	      8.48973      4.32027      6.20961        -0.003817     -0.061628     -0.002292
O	      1.95799      4.21885      4.06559        -0.169222     -0.046860     -0.044678
O	      4.35389      6.49169      4.10190         0.002370      0.087434     -0.054971
O	      4.21538      4.13725      6.29296         0.024932      0.051958      0.341011
O	      6.47415      6.35141      6.04235        -0.083875     -0.044157     -0.293432
O	      6.21582      4.28356      8.33972        -0.304994     -0.014004     -0.006563
O	      8.51823      6.47294      8.31673         0.010392      0.136018      0.054171
O	      2.17873      6.30363      6.13336         0.019931     -0.033429     -0.009863
O	      4.25584      8.43375      6.15804         0.035449     -0.001421     -0.258835
O	      4.17146      6.27629      8.21623        -0.023932     -0.044428      0.026011
O	      6.35937      8.45738      8.30460        -0.002851     -0.006273     -0.078681
O	      6.46498      6.21956     10.32665         0.006927     -0.223715      0.038998
O	      8.62285      8.36831     10.26800         0.077891     -0.005212     -0.072830
