# total energy = -248.84619408 eV
 
CRYSTAL
PRIMVEC
-0.015329 6.359161 6.321996 
6.196649 0.015938 6.290590 
4.151115 4.238527 -0.009295 
PRIMCOORD
36 1
Li	      8.24144      8.43849     12.55635         0.008583      0.067750     -0.056604
Li	      6.32032      8.45168     10.51175         0.106459     -0.017785      0.066682
Li	      6.19884      6.38272      4.33256         0.000861      0.041125     -0.011403
Li	      8.10672      6.37052      6.33748        -0.049002      0.006764     -0.003763
Li	      6.19041      4.40209      6.27461        -0.006676      0.000758      0.029295
Li	      8.20688      6.43125     10.52997        -0.012323     -0.006900     -0.077224
Li	      6.24564      8.40979      6.31635        -0.019438     -0.052937     -0.020655
Li	      8.17712      8.42172      8.43541         0.005445     -0.067945      0.066691
Li	      6.26971      6.43591      8.27019         0.026379     -0.027675     -0.029228
Ti	      4.26088      8.39533      8.45851         0.191083     -0.182385      0.028010
Ti	      6.17749      2.20479      8.28817        -0.104047      0.289378     -0.260489
Ti	      4.21262      4.19416      4.29620         0.175499     -0.099170      0.347877
V	      8.22304      4.28594      4.20572        -0.020452      0.043934      0.037359
V	      8.22260      4.28604      8.33289        -0.134913      0.021611     -0.050028
V	     10.31381      8.50207     10.51434        -0.021244      0.042527     -0.088508
Cr	      0.07841      6.36014      6.30837        -0.106450      0.001746     -0.105640
Cr	      4.14918      6.32480      6.30587         0.021086      0.015045      0.000043
Cu	      2.16102      6.28987      8.36408         0.100171     -0.139893      0.000822
O	      2.01224      2.26412      2.10441        -0.009175     -0.067801     -0.000924
O	      4.07029      4.25784      2.10629         0.004143      0.037690     -0.016389
O	      4.09106      2.21731      4.13556         0.030701      0.176201     -0.110235
O	      6.07851      4.21675      4.23392        -0.267137      0.051538     -0.029820
O	      6.23328      2.02539      6.43577         0.009458     -0.016001      0.233027
O	      8.38839      4.29110      6.31233         0.012524     -0.044087      0.109033
O	      2.06266      4.24362      4.06625         0.047617      0.007911      0.060239
O	      4.13800      6.30152      4.19328        -0.024791      0.085114     -0.010094
O	      4.08329      4.31546      6.17303         0.041484      0.011423     -0.266990
O	      6.08935      6.35228      6.30787        -0.000247      0.069371     -0.025216
O	      6.15301      4.11657      8.44635         0.037681     -0.174458     -0.118846
O	      8.39124      6.30917      8.38651         0.108821      0.033005     -0.011061
O	      2.07383      6.37361      6.24585        -0.008483     -0.023080      0.083448
O	      4.14931      8.47941      6.36123        -0.007452      0.000322      0.137602
O	      4.19756      6.47193      8.35055         0.023645      0.099234     -0.041780
O	      6.07860      8.43063      8.46372        -0.195057      0.049687      0.028038
O	      6.16152      6.29424     10.63541         0.131663     -0.005931      0.049591
O	      8.36488      8.60502     10.47337        -0.096416     -0.226087      0.057139
