# total energy = -248.80584309 eV
 
CRYSTAL
PRIMVEC
0.039121 6.362288 6.334093 
6.304407 0.033854 6.339582 
4.196826 4.239247 0.028635 
PRIMCOORD
36 1
Li	      8.39756      2.19558      6.31508         0.013249      0.025530      0.017158
Li	      8.37103      4.25824      4.26512         0.040254      0.042233     -0.005545
Li	      6.37690      6.35633      4.31707         0.035840      0.027201     -0.003594
Li	      4.21848      4.19820      4.33355        -0.023799     -0.018795      0.024480
Li	      8.31009      6.42527      6.32985        -0.013897     -0.020752      0.007438
Li	      6.30658      4.33519      6.29427        -0.040816      0.079483     -0.022090
Li	      6.39704      8.41099      6.38052         0.002488     -0.020413     -0.002796
Li	      8.38734      8.52189      8.46030         0.012368      0.025970     -0.047118
Li	      6.32914      6.40136      8.38329        -0.023365      0.021211     -0.056088
Ti	      0.08476      6.35932      6.32534        -0.016476      0.044819     -0.017758
Ti	      6.25982      2.28520      4.18914        -0.132321      0.196433     -0.039563
Ti	      8.34775      4.27140      8.46108        -0.138357      0.060429      0.019639
V	      2.07545      6.35086      4.28659         0.024792      0.000766     -0.034416
V	      4.27348      8.46279      8.46475         0.015627     -0.007167     -0.019231
V	      6.33761      2.14823      8.39317        -0.046395     -0.018563     -0.000782
V	      4.33973      6.23313      6.37988         0.087242      0.116088     -0.035223
Cr	     10.45598      8.51871     10.58474        -0.050778     -0.040909      0.008291
Ni	      2.20662      6.39575      8.48059        -0.042111      0.003228      0.008721
O	      2.12731      2.18258      2.12657        -0.007907      0.175597      0.061147
O	      4.17977      4.24201      2.08571        -0.055363     -0.008284     -0.003314
O	      4.34999      2.13659      4.23747         0.177259      0.024640      0.063414
O	      6.32840      4.14814      4.23175         0.013929     -0.256631      0.162014
O	      6.33158      2.01157      6.23579         0.034478     -0.092470     -0.071822
O	      8.54536      4.26511      6.51823         0.002384     -0.018593      0.071688
O	      2.00708      4.25146      4.12298        -0.017591     -0.089862     -0.113749
O	      4.16812      6.47800      4.27370         0.002625      0.038716      0.034421
O	      4.17892      4.44426      6.32187         0.021440     -0.236731     -0.008337
O	      6.15292      6.42172      6.34386         0.092331     -0.079047     -0.055212
O	      6.39685      4.24774      8.52214         0.140850      0.087497      0.001841
O	      8.42578      6.24344      8.50345        -0.096761     -0.180528     -0.069718
O	      2.12371      6.37528      6.41089        -0.074025      0.025069     -0.127388
O	      4.23318      8.53363      6.27920        -0.023315      0.076711     -0.072239
O	      4.22636      6.38041      8.32871         0.112099     -0.007078      0.057154
O	      6.36982      8.50724      8.59774         0.063361     -0.062531      0.180014
O	      6.29244      6.34243     10.65015        -0.071178      0.008670      0.091002
O	      8.41307      8.48969     10.58960        -0.018160      0.078064     -0.002439
