# total energy = -252.02745584 eV
 
CRYSTAL
PRIMVEC
-0.001767 6.289336 6.268535 
6.328748 -0.007932 6.274862 
4.220850 4.198748 -0.007176 
PRIMCOORD
36 1
Li	     10.52221      4.22866      6.30149        -0.038901      0.012052      0.077979
Li	      8.37668      2.13070      6.28065        -0.052879      0.023224      0.071694
Li	      4.19994      2.13827      2.14494        -0.058836      0.057014      0.036564
Li	      6.32287      8.37662     10.43518        -0.043330      0.016931     -0.017045
Li	     10.53783      6.29854      8.36664         0.006857     -0.015457      0.010012
Li	      2.12257      2.11528      4.11662         0.017117      0.003992     -0.059358
Li	      4.17194      4.19285      4.14599        -0.027317      0.014616     -0.074229
Li	      8.42297      8.35190      8.39381        -0.016851     -0.028067     -0.021356
Li	      6.39598      6.27432      8.37897         0.075299     -0.033998     -0.022893
Ti	      6.17852      4.30991      2.14210        -0.521944      0.452743      0.084447
Ti	      4.28902      6.28274     10.36422         0.001817      0.244762     -0.143601
Ti	      6.28674      8.38722      6.30764        -0.179452     -0.020182      0.246489
V	      6.33882      4.14569     10.37809         0.114644     -0.126837     -0.176750
V	      8.38828      6.33060     10.42374         0.101886     -0.100920     -0.390987
V	      8.50394      6.26394      6.30516         0.020660     -0.023123      0.006566
V	      6.29910      4.16267      6.27145         0.092446     -0.045599      0.141753
V	      4.27019      6.29656      6.32736         0.004448      0.029652      0.015568
Co	      2.18038      4.12969      2.09523        -0.055790      0.121061      0.099821
O	      2.12252      1.98722      2.06116        -0.015902     -0.230565      0.009439
O	      4.30410      4.18522      2.11016         0.254241      0.012631     -0.014859
O	      4.22377      1.92998      4.27252         0.036778     -0.247281      0.006396
O	      6.39863      4.17839      4.09091         0.104359     -0.020929      0.047118
O	      6.24338      2.18959      6.25195        -0.027847      0.026812     -0.102345
O	      8.34189      4.18183      6.16988        -0.001222      0.041680     -0.173400
O	      2.10527      4.19215      4.27828        -0.093672      0.042485      0.160412
O	      4.17473      6.38446      4.23117        -0.036375      0.003663      0.050388
O	      4.20981      4.17790      6.27036        -0.115319     -0.062114      0.002886
O	      6.39032      6.32106      6.28867         0.066861      0.103479      0.013306
O	      6.43290      4.17374      8.35949         0.257011      0.041466     -0.112502
O	      8.44613      6.21147      8.29570        -0.045946     -0.319296      0.186950
O	      2.13328      6.22087      6.34048        -0.013964     -0.085140     -0.026134
O	      4.34661      8.39461      6.19547         0.279262      0.049542      0.014057
O	      4.13273      6.29636      8.44427         0.011403     -0.017936      0.317863
O	      6.32719      8.50379      8.21635         0.025724     -0.021581     -0.326674
O	      6.23453      6.22525     10.44052        -0.186106      0.034228      0.017431
O	      8.47572      8.46561     10.42579         0.060840      0.066991      0.044993
