# total energy = -254.40957067 eV
 
CRYSTAL
PRIMVEC
0.023179 6.344360 6.223836 
6.415850 -0.023048 6.270294 
4.273213 4.256254 -0.011480 
PRIMCOORD
36 1
Li	      6.52876     10.54393      8.42777         0.038628     -0.061292      0.057018
Li	      4.28651      6.28447     10.31493        -0.006047     -0.031596      0.010184
Li	      6.45627      8.48091     10.35386        -0.048210      0.045193     -0.009745
Li	     10.42410      6.35375      8.32346        -0.007062      0.011750     -0.004423
Li	      8.56958      4.47849      8.30374        -0.015565      0.008973     -0.009859
Li	      8.56125      6.35800      6.43911        -0.016484      0.018561     -0.089676
Li	      8.50750      6.38809     10.16430        -0.044620      0.022689      0.059985
Li	      8.52366      8.27137      8.37689         0.008975      0.030676      0.001461
Li	      6.61312      6.38835      8.34237        -0.016922      0.013873     -0.029567
Ti	      2.04112      2.09298      0.07185        -0.087840      0.019052     -0.058852
Ti	      6.38847      4.29432     10.23122        -0.092846      0.083286     -0.258864
Ti	      2.24843      4.28006      6.33306        -0.010556     -0.045031      0.219011
V	     10.64456      4.24951      6.30643         0.021938      0.012064      0.019708
V	      4.32248      8.36820      8.32620         0.152885      0.166452      0.233427
V	      6.47537      4.21874      6.32243        -0.026807      0.065181      0.004612
V	      2.16332      2.09497      4.10278         0.038978     -0.136885      0.177258
V	      4.28294      4.28407      4.08416         0.053120     -0.183005     -0.102600
V	      4.22386      6.35270      6.25280         0.141972     -0.220380     -0.035147
O	      2.19571      2.07528      2.03733         0.307540      0.026191     -0.248328
O	      4.27542      4.15500      2.06728        -0.017449     -0.065247     -0.140754
O	      4.19267      2.23160      4.07744        -0.052393      0.073432      0.356336
O	      6.34048      4.28902      4.20772        -0.012389      0.057645     -0.119709
O	      6.53838      2.06853      6.24545         0.110240      0.017540     -0.020577
O	      8.63223      4.07971      6.26737        -0.018030     -0.124312      0.047921
O	      2.06528      4.20127      4.25622         0.006564      0.005063     -0.034262
O	      4.38169      6.36766      4.11179        -0.081089      0.150696     -0.145360
O	      4.25516      4.24185      6.13894        -0.119794     -0.026512      0.025428
O	      6.38216      6.41979      6.11420         0.053047      0.149311      0.083233
O	      6.41710      4.23896      8.42910         0.009340      0.004913      0.444479
O	      8.54977      6.36090      8.30390        -0.049478     -0.002882      0.019525
O	      2.07282      6.33490      6.24829        -0.024261     -0.011961      0.027172
O	      4.32907      8.48276      6.24680        -0.028955      0.052230     -0.283996
O	      4.29472      6.43858      8.31847         0.007953      0.054525     -0.014384
O	      6.42527      8.47517      8.20209        -0.301708      0.012934     -0.203602
O	      6.43508      6.17775     10.52740         0.012652     -0.171563     -0.063295
O	      8.76756      8.40094     10.56925         0.114673     -0.021562      0.086243
