# total energy = -217.74689333 eV
 
CRYSTAL
PRIMVEC
0.042519 6.331182 6.244983 
6.355505 0.031824 6.256046 
4.240679 4.231863 0.017470 
PRIMCOORD
36 1
Li	      2.22387      8.45924      6.29715         0.069119      0.030607     -0.001326
Li	      4.29563      8.45565      8.29138         0.027926      0.016660     -0.049979
Li	      8.41190      4.26687      8.30028        -0.047547     -0.002258     -0.057277
Li	      8.40853      6.34355      6.32039         0.003750     -0.032824      0.026217
Li	      6.33944      4.39461      6.32035        -0.009052      0.077011     -0.012288
Li	      0.05822      4.21508      4.16206         0.013726     -0.001715      0.024255
Li	      6.33824      8.39270      6.28883        -0.055474      0.033900      0.031823
Li	      4.37834      6.36339      6.29628         0.000193      0.036611      0.033827
Li	      6.42007      6.32213      8.17072         0.005141     -0.009569     -0.034530
Sc	      4.33554      6.33746     10.42039         0.105055     -0.026100      0.155284
Fe	      4.24255     10.45792      6.30541         0.054489      0.166130      0.044974
Fe	      2.17924      6.36142      8.26002         0.066732     -0.129872     -0.121696
Fe	      6.38895      2.20182      8.26580        -0.117712     -0.079125     -0.154292
Fe	      6.34841      6.44796      4.30259        -0.037602      0.038855     -0.138611
Fe	      4.23500      4.20672      4.30031         0.070376      0.016893     -0.023910
Fe	      8.47105      6.36574     10.42946        -0.028794     -0.025689      0.151089
Fe	      4.28883      4.22500      8.20576        -0.046443      0.030022     -0.098594
Cu	      6.35911      2.12480      4.21724        -0.054208     -0.064972      0.173966
O	      6.34783      6.38962      6.17262         0.047479     -0.011912      0.071134
O	      2.03090      2.05198      2.16903         0.088172      0.087292      0.090849
O	      4.34262      4.30711      2.13684        -0.051654      0.026095      0.169240
O	      4.18912      2.16436      4.14289        -0.017325     -0.004038     -0.005942
O	      6.35829      4.34645      4.16667        -0.021230      0.085892      0.041026
O	      6.34297      1.88983      6.23690         0.030051      0.422740      0.008320
O	      8.64990      4.22327      6.24418        -0.396516     -0.014078     -0.025472
O	      2.23455      4.26294      4.13570        -0.044556     -0.073647     -0.021830
O	      4.21495      6.28893      4.15019         0.058344      0.005448      0.025718
O	      4.26203      4.21980      6.23524        -0.000401      0.036453     -0.001555
O	      6.29821      4.14786      8.27668         0.066241      0.066345      0.014337
O	      8.54839      6.42500      8.42350         0.041261     -0.066610     -0.075466
O	      2.00698      6.33396      6.23529         0.252890      0.034099     -0.002984
O	      4.27964      8.67115      6.30975        -0.019750     -0.749230      0.007301
O	      4.20012      6.29702      8.33113         0.021078      0.016891     -0.028949
O	      6.47862      8.56839      8.48682        -0.011281      0.055867     -0.088617
O	      6.44007      6.28824     10.43669        -0.037430      0.009118     -0.137529
O	      8.51325      8.43613     10.36971        -0.025046     -0.001292      0.011487
