# total energy = -217.95023689 eV
 
CRYSTAL
PRIMVEC
0.016138 6.353928 6.233269 
6.318148 0.023685 6.225577 
4.222006 4.240642 0.005966 
PRIMCOORD
36 1
Li	      4.18405      2.10914      2.10938        -0.037301      0.009658     -0.038901
Li	      8.43160      4.27692      4.19292        -0.008087     -0.043399     -0.005342
Li	      2.10977      4.23218      2.11080         0.022521     -0.024870     -0.016839
Li	      6.36167      6.40375      4.24474         0.027480      0.013272      0.069683
Li	      8.34318      6.31761      6.21130        -0.042038      0.029458      0.033247
Li	      6.40264      4.36921      6.16786        -0.006091      0.074832      0.007862
Li	      0.08375      4.22821      4.17493         0.048207      0.015924     -0.008408
Li	      2.14892      6.28208      4.16704         0.037974     -0.030102      0.023389
Li	      4.30224      6.38443      6.15734         0.032388     -0.074948     -0.016269
Sc	      4.25501      4.25665      8.27781         0.042879      0.032511     -0.499298
Fe	     10.50923     10.56934     12.40836        -0.057702     -0.024552      0.247375
Fe	      8.50235      8.53962     12.38758         0.037288     -0.000302      0.035451
Fe	      2.16074      0.08640      2.07681        -0.069377     -0.072249     -0.073742
Fe	      6.25562      2.13717      4.19234         0.109534     -0.018788      0.024865
Fe	      4.22340      6.36975      2.13092        -0.059011     -0.058634     -0.203302
Fe	      4.17437      4.23761      4.21760        -0.144086      0.038274      0.098822
Fe	      6.37624      6.31390      8.27258        -0.023525     -0.028113      0.057824
Ni	      6.30560      8.44062      6.19140         0.119664     -0.020769      0.160763
O	      2.04560      2.05997      1.98619        -0.001432      0.067875      0.123304
O	      4.28171      4.31223      2.07469         0.103509      0.068143     -0.502019
O	      4.27295      2.34233      4.17689        -0.067730     -0.412002     -0.163321
O	      6.18114      4.18807      4.09827         0.200035      0.038651      0.000761
O	      6.38316      2.06831      6.23153         0.001107      0.025879      0.005391
O	      8.51592      4.17149      6.21697        -0.059742      0.028156     -0.025597
O	      2.29539      4.21133      4.20487        -0.304651     -0.041575     -0.536324
O	      4.23946      6.15189      4.07669         0.039311      0.393222      0.048283
O	      4.17911      4.28287      6.14751         0.142744      0.044599      1.324210
O	      6.32122      6.38759      6.38189        -0.007757     -0.057293     -0.134125
O	      6.32076      4.23956      8.37536         0.001945     -0.026684      0.022006
O	      8.45503      6.41495      8.30687         0.005199     -0.021422      0.040111
O	      2.04119      6.37138      6.30363        -0.005562      0.092472     -0.090367
O	      4.19566      8.55378      6.17139        -0.035573     -0.099842      0.004228
O	      4.18769      6.34981      8.35994         0.047513      0.025259     -0.004185
O	      6.33708      8.47574      8.34820         0.006485      0.044686      0.066923
O	      6.30216      6.47680     10.36246         0.006337      0.029822     -0.125662
O	      8.32637      8.49925     10.40166        -0.102459     -0.017150      0.049204
