# total energy = -199.56672244 eV
 
CRYSTAL
PRIMVEC
0.005152 6.197976 6.178774 
6.190816 0.021718 6.162170 
4.148724 4.142366 -0.006908 
PRIMCOORD
36 1
Li	      8.20956      8.25625     12.26948         0.026777     -0.034173     -0.014153
Li	      8.26437      4.12051      4.14292         0.015385     -0.004462     -0.011720
Li	      6.23950      2.11879      4.16109         0.017871     -0.003928     -0.058229
Li	      4.15157      6.19795      2.04583        -0.010542      0.047658      0.035708
Li	      4.15536      4.17502      4.16768        -0.019020      0.022192     -0.019123
Li	      2.07610      6.20265      4.13563         0.028246     -0.015622      0.009705
Li	      2.10387      4.18943      6.10260        -0.023890      0.058242     -0.008488
Li	      4.15962      6.14964      6.10662         0.008010      0.020968     -0.002604
Li	      6.26608      6.18929      8.21947         0.009517      0.017126      0.011653
Sc	      4.19009      8.20941      8.21101         0.055817     -0.099639     -0.060053
Mn	      8.29285      8.26046      8.24703         0.114268     -0.076519     -0.144851
Co	      8.24432      4.23115      8.22932        -0.097416     -0.000264      0.277101
Co	     10.33528      8.31990     10.29690         0.123822      0.032963      0.136324
Cu	      6.22140      6.26298     12.30025        -0.054421     -0.097649      0.044719
Cu	      6.18568      4.15891      2.06265         0.080899      0.007167      0.166954
Cu	      6.22169      4.11222      6.07020        -0.095143     -0.095563      0.147737
Ni	      6.18714      6.22508      4.11716        -0.097707      0.132591      0.146796
Ni	      4.13285      2.08989      6.13379         0.006194     -0.036952      0.005113
O	      6.24092      6.09989      6.03166        -0.016254     -0.099839      0.164337
O	      2.00148      6.23343      6.29919         0.102386     -0.003017      0.011696
O	      6.18299      6.04613     10.37202        -0.105385     -0.013507     -0.080752
O	      2.07335      2.08694      2.16871         0.018860      0.086818     -0.239158
O	      4.14890      4.14202      1.97314        -0.052724      0.061156      0.066545
O	      3.95769      2.09826      4.08174         0.196726     -0.034786     -0.164528
O	      6.16472      4.15952      4.05428         0.050019     -0.178671     -0.563878
O	      6.18105      2.10497      6.09781         0.050136      0.206005      0.070707
O	      8.22963      4.15703      6.28273         0.086166     -0.057341     -0.172955
O	      1.92375      4.16975      4.03148        -0.272336      0.079169     -0.039497
O	      4.28881      6.38276      4.13541        -0.207025      0.064849     -0.116895
O	      4.22136      4.12083      6.29548        -0.023886      0.112970      0.140270
O	      6.10068      4.18759      8.35523        -0.066500      0.005107      0.135295
O	      8.26430      6.32054      8.21288        -0.002911      0.055239      0.035558
O	      4.15372      8.32891      6.08313        -0.011816     -0.083056      0.011217
O	      4.08945      6.11211      8.21835        -0.025418      0.014696      0.062640
O	      6.31498      8.29079      8.27353        -0.008258     -0.100812      0.020866
O	      8.44326      8.24137     10.17803         0.199552      0.010883     -0.004058
