# total energy = -196.49450877 eV
 
CRYSTAL
PRIMVEC
-0.077529 6.283346 6.268362 
6.087982 -0.008912 6.199847 
4.050644 4.135299 0.001946 
PRIMCOORD
36 1
Li	      3.99508      4.13178      0.08181        -0.036541      0.049411      0.015371
Li	      8.05483      2.17399      6.27611        -0.009587      0.030177      0.035303
Li	      4.04673      2.10594      2.14416        -0.023139      0.025373      0.023821
Li	      4.01749      0.08447      4.15334         0.051582      0.009393      0.068594
Li	     -0.02019      2.04060      2.04051        -0.018239     -0.084811     -0.018529
Li	      8.13652      4.17172      8.19144         0.118220      0.028013      0.046156
Li	      4.10676      4.02458      4.11827        -0.131149      0.037393     -0.032396
Li	      4.05566      2.09371      6.20220         0.024158     -0.050527     -0.007260
Li	      8.04780      8.27577      8.30324        -0.067605     -0.014518      0.012349
Sc	      4.00840      6.22421      6.33600        -0.027567     -0.064054     -0.032836
Mn	      8.06322      6.24502     10.33241        -0.096468     -0.071520     -0.090922
Co	      5.99433      4.19930     10.31811        -0.160371      0.265302     -0.386835
Co	      1.98429      4.19023      6.22601         0.030894      0.014467     -0.086558
Ni	      6.03034      2.10370      4.18148         0.242566     -0.289349     -0.049766
Ni	      6.04729      4.13391      2.10402         0.093599     -0.078921     -0.083427
Ni	      2.10431      2.04334      4.09779        -0.131403      0.207319      0.044067
Ni	      6.08818      4.06896      6.24636        -0.096357      0.120754      0.032568
Ni	      6.03769      6.27502      8.31818        -0.088031      0.306547     -0.019803
O	      7.98701      4.13353      6.24907         0.119287      0.040624      0.047855
O	      2.02058      1.92954      2.14335         0.001841      0.086977     -0.088214
O	      4.17104      4.14678      2.08236        -0.186987     -0.034172     -0.056121
O	      4.07592      2.07802      4.13238         0.086367     -0.038042      0.029613
O	      6.07698      4.13403      4.18256         0.019155     -0.029417      0.102444
O	      6.07107      2.13052      6.14632        -0.080984     -0.153681      0.130336
O	      1.86973      4.24065      4.26156         1.018704      0.114034      0.178333
O	      3.93320      6.41874      4.14920        -0.031299     -0.865554      0.096620
O	      3.97279      4.19735      6.20425        -0.003958      0.059740      0.037103
O	      6.07234      6.34802      6.21251        -0.010150      0.064085     -0.043408
O	      6.02787      4.25630      8.45376         0.084143     -0.285171     -0.075852
O	      8.03795      6.23117      8.48126         0.170641      0.020132      0.126486
O	      1.94153      6.12045      6.13899         0.010954     -0.042683     -0.061835
O	      4.10007      8.33967      6.04839         0.102006      0.069889      0.056384
O	      3.93504      6.27509      8.33699        -0.011584     -0.009654     -0.069498
O	      6.00100      8.38631      8.17956         0.011362      0.044743     -0.024073
O	      6.12302      6.19743     10.35465         0.143072      0.785781      0.119264
O	      8.12849      8.16344     10.42603        -1.117132     -0.268078      0.024664
