# total energy = -192.15374381 eV
 
CRYSTAL
PRIMVEC
0.044224 6.195322 6.294589 
6.210896 0.037296 6.301763 
4.154868 4.148976 0.010701 
PRIMCOORD
36 1
Li	     10.28889      4.17726      6.36257        -0.008412     -0.016244      0.019684
Li	      8.29726      2.19321      6.36635         0.072794      0.063215     -0.007217
Li	      4.13214      8.29461      8.27361        -0.032645      0.048627     -0.086630
Li	      8.26403      4.21690      4.33532         0.016517     -0.021480      0.049955
Li	      6.27636      2.18561      8.33729         0.009438     -0.046678     -0.001167
Li	      8.21409      4.10833      8.31260         0.012702     -0.035820      0.002328
Li	      2.09624      2.05668      4.13270        -0.012449      0.054331     -0.010110
Li	      6.37048      4.12384      6.43093        -0.005798     -0.015274     -0.006590
Li	      0.07525      4.09885      4.17572        -0.000671     -0.042894      0.029202
Sc	      4.14134      4.16710      4.14137        -0.143133      0.015952     -0.012840
Mn	      2.07960      0.05520      2.08937        -0.079782      0.276220     -0.144640
Cu	      6.21977      2.07806      4.23738        -0.028221      0.030402      0.205034
Cu	      8.36532      8.27998      8.42581         0.136155     -0.038967      0.180057
Ni	      8.32114      6.18599      6.32204        -0.143571      0.057339      0.029464
Ni	      8.30334      6.24827     10.50558         0.225965     -0.130221      0.025454
Ni	      6.21112      8.28547      6.29343         0.091036      0.104847      0.046227
Ni	      4.18706      6.25453      6.31338         0.124579      0.083287     -0.165023
Ni	      6.24008      6.19834      8.41250        -0.020418     -0.022170      0.008717
O	      6.13274      4.20628      8.39586         0.062278     -0.063907     -0.010418
O	      8.26013      8.14606     10.44708        -0.050774      0.246026     -0.018622
O	      2.10890      1.91966      2.08205         0.000980     -0.157068      0.039018
O	      4.33201      4.13332      2.13508         0.076871     -0.038899      0.014415
O	      4.20233      2.06381      4.40562        -0.071964      0.056070     -0.291106
O	      6.23886      4.12807      4.04758         0.104386     -0.060264     -0.003566
O	      6.06148      2.12901      6.19667         0.455559      0.107613      0.317555
O	      8.30474      4.31068      6.33619        -0.092778     -0.481018      0.017683
O	      2.08225      4.30201      4.19778         0.032648     -0.240918     -0.096862
O	      4.00802      6.21687      4.29557         0.217586     -0.067257     -0.125361
O	      4.01369      4.08628      6.35049         0.193447      0.170466     -0.113021
O	      6.30371      6.33986      6.32574        -0.212745     -0.057244     -0.007108
O	      8.29762      6.29598      8.26024         0.010095      0.012596      0.147769
O	      2.14554      6.10813      6.40997        -0.107208      0.022791      0.180052
O	      4.35905      8.22886      6.31314        -0.424024      0.040627      0.009097
O	      4.11756      6.13451      8.36327        -0.076515      0.036864      0.107156
O	      6.31260      8.36441      8.47529         0.012366     -0.025517     -0.325216
O	      6.42583      6.30510     10.44112        -0.344292      0.134566     -0.003371
