# total energy = -103.28615033 eV
 
CRYSTAL
PRIMVEC
4.079687 0.000018 -0.005088 
2.047352 4.321730 -6.239059 
2.037253 4.307172 2.066691 
PRIMCOORD
16 1
Li	      4.09266      8.54770     -4.11363         0.006001      0.009370     -0.003055
Li	      2.02079      1.82512      0.07813         0.003552     -0.003181     -0.007449
Li	      4.06443      6.76599     -2.10941         0.001439      0.028609     -0.012415
Li	      4.09685      4.38972     -4.19767        -0.002919     -0.015238     -0.033159
Ti	      3.99009      2.15917     -1.97117        -0.044821     -0.036259      0.136820
Ti	      6.03357      6.48146     -4.04915        -0.114006      0.024437      0.058495
Ni	      4.10499      4.23868     -0.00311         0.002292      0.033834      0.022130
Ni	      6.14722      4.40331     -2.15753        -0.000915     -0.058841     -0.024431
O	      4.12025      4.10055     -2.07422        -0.032513     -0.143982     -0.073838
O	      6.12162      6.49810     -2.12587        -0.000606      0.084296     -0.116146
O	      4.08110      2.13414     -0.07731        -0.014798     -0.069438     -0.175498
O	      6.15746      4.54095     -0.12382        -0.028136      0.149453      0.141270
O	      2.06581      2.15894     -2.09431         0.124962      0.015117      0.017266
O	      6.15164      4.54348     -4.16729         0.010668      0.125735     -0.125229
O	      4.12857      6.47747     -4.16643         0.102305     -0.009052      0.031023
O	      6.15306      8.40568     -4.24974        -0.012505     -0.134861      0.164216
