# total energy = -191.78581535 eV
 
CRYSTAL
PRIMVEC
0.034917 6.176382 6.234691 
6.286304 0.013475 6.255797 
4.196786 4.137689 0.003102 
PRIMCOORD
36 1
Li	      6.24695      0.08830      6.21601         0.064339      0.014669     -0.020453
Li	      6.34890      4.13059      2.18602        -0.101979     -0.020902      0.023184
Li	      8.30529      4.18696      4.25443        -0.066440      0.028110      0.045846
Li	     10.42953      6.21028      8.34197         0.010160      0.023869     -0.125252
Li	      6.24764      6.14679      4.22136         0.099895     -0.120310      0.048400
Li	      4.33386      4.10443      4.18963         0.002746     -0.138340      0.051664
Li	      6.28689      4.07868      6.09192        -0.019109     -0.027293      0.108813
Li	      2.18319      6.18627      4.21598        -0.117032      0.014082     -0.045941
Li	      4.30360      4.06775      8.27311         0.161380     -0.029894     -0.017918
Sc	      6.33345      6.20366      8.33884        -0.074214     -0.137212     -0.106629
Mn	      2.20892      8.26602      6.19806        -0.127859     -0.006808     -0.092300
Cu	      4.13486      2.08419      2.12461         0.078838     -0.058042     -0.127319
Cu	      4.22739      2.03678      6.24222        -0.034836     -0.121589      0.043155
Cu	      4.20662      6.16605      6.18564        -0.004934     -0.089410      0.418445
Ni	      6.28630      2.11922      4.19312         0.104612      0.100581      0.044905
Ni	      2.09602      4.10727      2.14151         0.439603      0.036118     -0.401908
Ni	     10.49693      8.25460     10.39938         0.107184     -0.443949      0.034731
Ni	      2.09003      4.15666      6.16393        -0.156796      0.105464      0.057842
O	      4.07966      3.91853      6.27901         0.186436      0.220317     -0.043801
O	      2.31602      6.29211      6.21940        -0.064624      0.106656     -0.047787
O	      4.21886      6.32482      8.13223         0.010192     -0.036783     -0.010219
O	      2.26534      2.04992      1.92627        -0.198270      0.104660      0.218381
O	      3.99612      3.95068      2.17487         0.364126      0.134914      0.156625
O	      4.27495      2.03158      4.39288        -0.063955      0.090052     -0.038281
O	      6.33382      3.97566      4.16233        -0.013125      0.312401     -0.033000
O	      6.58896      2.03571      6.21518         0.093556      0.026945      0.222220
O	      8.36720      4.14103      6.44428        -0.021995     -0.063297     -0.329875
O	      1.91316      4.15286      4.09791         0.419842     -0.024052      0.246861
O	      4.20626      6.18322      4.30757        -0.004706      0.522884     -0.317819
O	      6.07675      6.21904      6.21629         0.101937     -0.136714     -0.007778
O	      6.39742      4.10106      8.48681        -0.565401      0.237069     -0.990574
O	      8.41606      6.19559      8.15290        -0.083054     -0.178179      0.286108
O	      4.20180      8.43807      6.03209        -0.287097      0.036539      0.829207
O	      6.06397      8.31708      8.32000         0.144175     -0.059358     -0.005275
O	      6.34412      6.36481     10.35190        -0.014332     -0.448381     -0.044952
O	      8.52585      8.32564     10.52710        -0.369264      0.025181     -0.029304
