# total energy = -194.29021159 eV
 
CRYSTAL
PRIMVEC
0.018923 6.205910 6.390308 
6.166414 0.043346 6.364985 
4.117618 4.127560 0.022357 
PRIMCOORD
36 1
Li	      2.03885      2.08309      0.14020         0.021032      0.019116      0.032523
Li	      2.02681      0.08086      2.13541        -0.027329     -0.049546      0.036442
Li	      8.22803      4.14928      8.38711         0.005985     -0.001188     -0.025329
Li	      2.01952      2.09986      4.18430        -0.013717      0.040618      0.008406
Li	      4.18738      4.09790      4.34634        -0.006659      0.009673      0.015114
Li	      8.24624      6.25732      6.47995        -0.030963      0.012317      0.006835
Li	      6.08771      4.18583      6.39075        -0.087855      0.056913     -0.010858
Li	      4.13906      6.14688      6.48718         0.019814     -0.026532      0.034990
Li	      4.15743      4.11461      8.39992        -0.052137      0.026941     -0.040972
Sc	      8.16002      4.15285      4.30847        -0.095632      0.101002      0.029358
Mn	      2.12760      4.13729      6.36278         0.243966     -0.366563     -0.097978
Cu	      4.05994      2.08826      2.11167        -0.028407      0.292022     -0.095060
Cu	      6.16729      2.12559      4.29696        -0.067165      0.066763      0.014546
Cu	      0.04503      2.07838      2.11837        -0.046956     -0.065082      0.154140
Cu	      4.12156      8.22822      4.26025         0.159212      0.175664      0.209683
Cu	      2.09310      6.19304      4.25899         0.504064     -0.210397     -0.015422
Cu	      6.21818      6.20231      8.42446         0.102225     -0.154274      0.074092
Cu	      4.11169      4.15380      0.10928         0.031299      0.073892     -0.315832
O	      8.23846      6.20958      8.62744        -0.293869     -0.005593     -0.071531
O	      4.21438      8.34259      6.36735        -0.129771     -0.088394     -0.201372
O	      4.19430      6.31614      8.52389         0.071641     -0.006853     -0.015313
O	      6.13005      8.20589      8.30599         0.017118      0.071080      0.060531
O	      6.25772      6.30350     10.58105        -0.177450      0.107710      0.169392
O	      8.18450      8.24902     10.66011        -0.085293      0.032258      0.002454
O	      2.07655      2.06219      2.16818         0.081833      0.007530     -0.006615
O	      4.12304      4.07544      2.06422        -0.039576     -0.344802      0.215811
O	      4.22281      2.10830      4.10596        -0.002973     -0.138671      0.217238
O	      6.17363      4.03575      4.31278        -0.010700      0.152345      0.028239
O	      6.19375      2.02740      6.58440         0.043101      0.050935      0.034432
O	      8.33288      4.20070      6.33496         0.105161     -0.026738      0.006651
O	      2.01947      4.19817      4.43949        -0.055585     -0.027201     -0.051844
O	      4.05246      6.28622      4.09788         0.050551     -0.343398     -0.107014
O	      3.96862      4.16908      6.37177        -0.013349      0.032285      0.023218
O	      6.18682      6.33329      6.43543        -0.032270      0.128455     -0.250886
O	      6.17064      4.22850      8.59463         0.056386      0.345385     -0.050268
O	      2.02925      6.08739      6.30770        -0.215736      0.052326     -0.017802
