# total energy = -201.21720350 eV
 
CRYSTAL
PRIMVEC
0.025017 6.167852 6.523327 
6.045193 0.027582 6.520848 
4.052710 4.132305 -0.004262 
PRIMCOORD
36 1
Li	      4.03735      4.09041      0.08263        -0.030582      0.019770     -0.028444
Li	      4.06570      2.10289      2.19672         0.058252     -0.003903     -0.032486
Li	      5.93064      2.10183      4.33067         0.015356     -0.002928     -0.002025
Li	      4.07078      6.14226      2.13564        -0.037330      0.006411      0.026464
Li	      4.12115      4.02276      4.28098        -0.064353     -0.006576     -0.029454
Li	      4.04161      2.09852      6.47517         0.047240     -0.010146     -0.032854
Li	      6.00400      8.16119      6.63694        -0.060686     -0.092008     -0.098277
Li	      4.08867      6.21568      6.57378         0.009536     -0.012159     -0.019115
Li	      6.06447      6.21646      8.69891         0.075650      0.021885      0.004904
Sc	      2.05378      6.17637      4.37544         0.005821     -0.078494     -0.080844
Mn	      6.10155      6.16319      4.36230        -0.043095      0.309237      0.146937
Fe	      4.02895      4.12026      8.58426         0.239401     -0.295783      0.105114
Co	      2.05242      4.11689      2.20658         0.098018      0.241339     -0.010023
Cu	      8.06495      2.12020      6.55011         0.159621     -0.016793     -0.045113
Cu	      1.99573      6.18076      8.61430        -0.248873     -0.005181      0.021984
Cu	      6.08374      4.12678      6.51013         0.066995      0.183400      0.032473
Cu	      4.06135      8.26264      4.38861         0.105410     -0.045163      0.011133
Ni	      4.08621      6.21395     10.71245         0.043024     -0.021544      0.159445
O	      6.09892      6.01646      6.31855        -0.001883     -0.003030     -0.037570
O	      3.90498      8.25591      6.41528         0.047504      0.032358      0.010288
O	      3.98687      6.13636      8.66834        -0.044332      0.135291     -0.105117
O	      6.16103      8.28275      8.57690        -0.401356      0.090423      0.023456
O	      2.02606      2.17263      2.42492        -0.008036     -0.246250      0.095970
O	      3.96083      4.15005      2.13858         0.277606     -0.043305      0.027087
O	      3.93372      2.02876      4.38874         0.056973      0.185548     -0.036962
O	      6.07325      4.27611      4.13738        -0.159056     -0.079312     -0.021130
O	      6.19889      2.26314      6.50908        -0.177787     -0.145785      0.004166
O	      7.97684      4.00697      6.70653         0.031104      0.055457     -0.349920
O	      2.02700      4.03133      4.35964         0.133023     -0.122706      0.353865
O	      4.13716      6.23748      4.39188         0.106385     -0.113990      0.022978
O	      4.23356      4.09089      6.64031        -0.151654     -0.017873     -0.181384
O	      6.15763      4.16590      8.87374        -0.042189      0.041874     -0.028096
O	      8.08285      6.16935      8.76831         0.069967      0.065306      0.100468
O	      2.00867      6.38229      6.54326        -0.016924     -0.038194      0.099427
O	      6.05821      6.16146     10.92685         0.066411      0.081871     -0.038237
O	      8.14400      8.28155     10.64737        -0.225162     -0.069046     -0.069107
