# total energy = -224.95917576 eV
 
CRYSTAL
PRIMVEC
0.027920 6.235739 6.227069 
6.341379 0.022416 6.232709 
4.217650 4.151031 0.024716 
PRIMCOORD
36 1
Li	     10.48033      4.25969      6.28038        -0.083992      0.037864      0.031475
Li	     10.51660      6.19633      8.32719        -0.032749      0.089797      0.018527
Li	      2.24197      4.15548      2.07730         0.020214     -0.065470     -0.018621
Li	      2.09723      2.18729      4.17315        -0.049396      0.033165     -0.070172
Li	      4.11817      4.15609      4.15392        -0.061694     -0.030855      0.011384
Li	      8.45585      6.20486      6.26429        -0.010649      0.003938      0.032669
Li	      2.11723      6.20137      4.21756        -0.006416      0.013807      0.036081
Li	      2.16703      4.11108      6.14744         0.002332     -0.022889      0.047768
Li	      6.38000      6.25936      8.26539         0.004206      0.035543     -0.060433
Sc	      2.00653      0.08043      2.02900         0.215205     -0.019805      0.021460
Cr	      4.29834      6.27072     10.39819         0.014673      0.019957     -0.140352
Cr	      6.34440      4.18713      6.25092        -0.053386     -0.011427      0.047446
Cr	      0.17694      4.11842      4.17814        -0.036961      0.086950     -0.120872
Cr	      8.46358      8.18727      8.31964        -0.104118     -0.172836     -0.018138
Co	      4.19796      2.15532      2.08060         0.481371     -0.248708      0.199983
Co	      6.38978      8.28816     10.43052         0.037880     -0.028817     -0.059267
Co	      4.26760      6.23239      6.23106         0.066629      0.057219      0.089575
Ni	      2.09575      2.07177      0.04419         0.022862     -0.009737      0.047937
O	      2.13297      2.09459      2.09491        -0.233429     -0.009550      0.132365
O	      4.23190      4.16213      2.09222        -0.248557     -0.823076      0.081417
O	      4.44087      2.00969      4.11723        -0.084367      0.314486     -0.567747
O	      6.43100      4.02953      4.22894         0.017806     -0.101216     -0.028686
O	      6.37977      2.14775      6.10549        -0.135165     -0.037956     -0.073584
O	      8.34567      4.15646      6.16463         0.048195      0.170250      0.032870
O	      1.94728      4.20344      4.12312        -0.034414      0.004458     -0.008876
O	      4.21369      6.41539      4.31508        -0.006709      0.090529     -0.066890
O	      4.30041      4.26000      6.31199         0.000457      0.004500     -0.059273
O	      6.21618      6.16119      6.21714        -0.087227      0.021885     -0.052717
O	      6.17228      4.17345      8.33651         0.085472      0.017429      0.134736
O	      8.44479      6.41357      8.30509         0.038125     -0.089698     -0.013830
O	      2.29491      6.25498      6.23934         0.115220     -0.142212     -0.017497
O	      4.24634      8.18443      6.19220        -0.003041      0.032442      0.330795
O	      4.23737      6.15725      8.29166         0.008023      0.700729      0.017281
O	      6.49936      8.32178      8.46422         0.063770      0.077085      0.126171
O	      6.27421      6.18557     10.42628         0.025168     -0.013196      0.015688
O	      8.46266      8.37736     10.35385         0.004664      0.015415     -0.078673
