# total energy = -228.56053874 eV
 
CRYSTAL
PRIMVEC
0.041858 6.162292 6.268913 
6.236169 -0.024838 6.334816 
4.135100 4.130308 0.005404 
PRIMCOORD
36 1
Li	      6.07470      0.07692      6.24603         0.006159     -0.019542      0.009745
Li	      8.26859      4.07713      4.41228         0.033268      0.034599     -0.008415
Li	      6.27534      2.05981      4.35549         0.036246     -0.112504      0.039179
Li	      8.37537      4.09533      8.30408         0.005649     -0.052290      0.014662
Li	      4.17873      4.09714      4.23417        -0.008015     -0.040464      0.017601
Li	      4.29529      1.92436      6.29835        -0.070657     -0.021885     -0.025600
Li	      6.27618      4.01369      6.17635        -0.041796      0.097753      0.021809
Li	      8.29241      6.18979     10.54867        -0.069480      0.092656     -0.009177
Li	      4.24453      4.02326      8.36045        -0.006026      0.027763     -0.055329
Sc	      6.35010      6.09709      8.46779        -0.037093     -0.005796     -0.204302
Cr	      6.21878      4.11089      2.14134         0.076129      0.198889      0.220281
Cr	     10.31102      6.15052      8.40873         0.160777     -0.035424     -0.027563
Cr	     10.34653      8.23307     10.56404        -0.106331      0.107435      0.072592
Cr	      2.14698      4.13601      6.24659        -0.081846     -0.190814     -0.032173
Co	      8.24651      2.10970      6.31254         0.051650     -0.110385      0.084965
Co	      4.11944      2.11051      2.10216        -0.110689     -0.095135      0.081459
Co	      2.18148      1.98567      4.22327        -0.299771      0.455913      0.067144
Co	      4.17321      6.16609      6.27235         0.115920     -0.062002      0.081145
O	      2.11435      1.99681      2.05769        -0.003368      0.034051     -0.466784
O	      4.24039      4.09817      2.07692        -0.020103      0.022877      0.072601
O	      4.08120      2.08381      4.00230        -0.492959     -0.163093     -0.175726
O	      6.20147      4.20972      4.11762         0.375747      0.391719     -0.280778
O	      6.33780      2.04158      6.44778        -0.126673     -0.037463     -0.076022
O	      8.26507      3.95814      6.35667         0.039546      0.132882     -0.001751
O	      2.01815      4.03729      4.28675         0.129084     -0.493225      0.064870
O	      4.22243      6.23171      4.24162         0.395643     -0.120837      0.033761
O	      4.08654      4.25861      6.31801         0.026882      0.062463     -0.015299
O	      6.15127      6.23643      6.27962        -0.223106      0.114232      0.369207
O	      6.21418      4.02443      8.57170        -0.007656     -0.052962      0.014231
O	      8.36389      6.15740      8.37135         0.027426     -0.038545      0.096347
O	      2.24452      6.18300      6.35977        -0.013139     -0.091744     -0.061293
O	      4.14771      8.15060      6.32804         0.102567     -0.009008     -0.021283
O	      4.15911      6.30782      8.21622        -0.038412      0.024094      0.003296
O	      6.10914      8.26291      8.30934         0.044400      0.074975      0.003852
O	      6.25128      6.09339     10.46053         0.095234     -0.105579      0.124792
O	      8.36798      8.20439     10.68277         0.034794     -0.013603     -0.032043
