# total energy = -229.35597916 eV
 
CRYSTAL
PRIMVEC
0.020100 6.227194 6.329173 
6.175263 0.020893 6.328473 
4.115129 4.149072 0.015909 
PRIMCOORD
36 1
Li	      8.16273      2.16102      6.29089        -0.008391      0.077832     -0.103419
Li	      6.23529      2.15584      4.25413         0.039101     -0.218163     -0.005097
Li	      8.17427      4.18449      8.37014        -0.099379      0.345692     -0.091232
Li	      6.17072      6.22480      4.29389        -0.013446      0.072515      0.122574
Li	      4.11707      2.11110      6.32780        -0.073246      0.011476      0.295807
Li	      6.22118      4.11197      6.37450        -0.031254      0.096203      0.235864
Li	      8.29297      6.30338     10.52167        -0.081416      0.014367     -0.297297
Li	      4.11671      6.18603      6.34894         0.158720     -0.037444      0.037631
Li	      4.14078      4.17332      8.42369         0.156114     -0.260239     -0.009489
Sc	      6.15354      0.11921      6.26329        -0.264345      0.071577     -0.317555
Cr	      4.09036      8.28290      8.42184         0.167901     -0.000888     -0.062813
Cr	      8.15505      4.15105      4.25266         0.460126     -0.065211      0.101166
Cr	      6.17673      2.13115      8.42579        -0.649905      0.360216     -0.140962
Cr	      4.12331      8.23617      4.25811         0.012024      0.333698     -0.305267
Fe	      4.09800      4.14619      4.36150        -0.307119      0.069929     -0.032326
Co	      6.20246     10.35764      8.44226         0.170284     -0.116762      0.254753
Co	      2.09882      4.15562      6.34974         0.086047     -0.589785     -0.037193
Co	      6.37106      6.19173      8.35301         0.009636      0.092830      0.419987
O	      2.05854      1.91559      2.05614         0.026128     -0.066326     -0.070487
O	      4.18860      4.14170      2.13068        -0.310990     -0.116765      0.114015
O	      4.11062      2.09567      4.07322        -0.067449     -0.037123     -0.041811
O	      6.13824      4.13867      4.08095         0.062646     -0.014728     -0.460559
O	      6.17328      2.10334      6.44060         0.173111      0.018692     -0.141440
O	      8.23387      4.19247      6.23498         0.080273     -0.077471     -0.065442
O	      2.07171      4.14438      4.39983        -0.011678     -0.059996      0.120398
O	      4.12437      6.22149      4.12367         0.180971     -0.172333      0.180055
O	      4.04052      4.16602      6.25613        -0.079242      0.024784      0.058488
O	      6.16555      6.36627      6.51443         0.037844      0.261081     -0.133757
O	      6.22813      4.14724      8.56541        -0.010316     -0.532504      0.142768
O	      8.28964      6.22540      8.48367        -0.021933      0.031940     -0.051629
O	      2.10232      6.10379      6.48054         0.088629      0.113597      0.243126
O	      4.23341      8.31592      6.34867         0.029419     -0.075667      0.147611
O	      4.04063      6.30757      8.53459         0.257100     -0.014511     -0.139449
O	      6.12093      8.35226      8.32079        -0.087678      0.422993     -0.081978
O	      6.12906      6.17474     10.48004        -0.073356     -0.006794      0.078857
O	      8.31126      8.39279     10.58560        -0.004931      0.043290      0.036105
