# total energy = -231.17885568 eV
 
CRYSTAL
PRIMVEC
0.036127 6.242310 6.299063 
6.322070 0.033567 6.302158 
4.244252 4.193316 -0.007254 
PRIMCOORD
36 1
Li	      4.23226      4.20040      0.08059        -0.029321      0.013825      0.065206
Li	      6.21438      4.29809      2.18359        -0.018577     -0.023780      0.009657
Li	      8.33605      4.28689      4.23841        -0.038541     -0.002196     -0.011674
Li	      4.36061      6.18717      2.11529        -0.018095     -0.027943     -0.031234
Li	      2.11503      4.11403      2.07034        -0.012173     -0.016073      0.000614
Li	      6.26924      6.14680      4.16272        -0.037066      0.006293      0.008843
Li	      6.43327      4.22005      6.24225        -0.006204     -0.001180      0.036094
Li	      0.08445      4.13004      4.17411         0.010056     -0.032884     -0.009687
Li	      4.23287      6.34014      6.20988         0.023273     -0.010848      0.010293
Sc	      4.34917      4.27894      8.38287         0.072637      0.045941     -0.015502
Cr	      8.48921      6.20334      6.28913         0.089293     -0.077117     -0.022245
Cr	      2.21123      6.17978      4.20722         0.088572      0.004002      0.113072
Cr	      6.32244      8.37944      6.28385        -0.044594      0.001402     -0.002379
Cr	      6.39119      6.26322      8.39487        -0.052616     -0.121833     -0.031613
Fe	      8.46294      2.22938      6.33788        -0.054864     -0.069852     -0.025205
Fe	      4.12796      2.16232      2.11286        -0.002169     -0.104792      0.083094
Fe	      6.32694      2.22102      4.26771         0.006339     -0.124205     -0.078211
Ni	      4.25803      4.20084      4.18707        -0.022461      0.026381     -0.005146
O	      2.16363      2.05584      1.98829        -0.069349     -0.037702      0.089922
O	      4.22193      4.06890      2.18508        -0.003406      0.124441     -0.195836
O	      4.29793      2.08937      4.25445        -0.066149     -0.089035      0.003877
O	      6.31338      4.12941      4.19471         0.127112      0.123851     -0.008705
O	      6.32889      2.09444      6.24088        -0.048364     -0.015747      0.123086
O	      8.47584      4.17806      6.25124         0.000036      0.214643     -0.012092
O	      2.11184      4.28549      4.30454        -0.065347      0.069985      0.013184
O	      4.07375      6.26107      4.16163        -0.103564      0.141838     -0.035674
O	      4.11578      4.07966      6.29620         0.020043      0.027780      0.155211
O	      6.46015      6.35893      6.35368        -0.021303     -0.008679      0.001565
O	      6.32613      4.29066      8.40516        -0.032945      0.032425     -0.023831
O	      8.42154      6.30681      8.36665         0.045487      0.026214      0.086583
O	      2.14797      6.23236      6.15251        -0.006084     -0.028110     -0.100373
O	      4.25962      8.35488      6.36833         0.124529     -0.019546     -0.062681
O	      4.38007      6.32287      8.44189         0.008445     -0.066939     -0.026466
O	      6.35756      8.31962      8.36173         0.020853      0.033309     -0.027334
O	      6.58962      6.39243     10.36856         0.037451     -0.016822     -0.020467
O	      8.43932      8.27202     10.53559         0.079066      0.002952     -0.053945
