# total energy = -102.85146417 eV
 
CRYSTAL
PRIMVEC
0.000101 2.093658 2.091764 
6.312039 4.225292 -6.313132 
-4.253892 2.136366 -2.134537 
PRIMCOORD
16 1
Li	      1.99757      8.28993     -6.19191         0.006618      0.012259     -0.015582
Li	     -2.19768      4.18733     -2.08974        -0.014060     -0.019938      0.019705
Li	      0.02440      4.28569     -4.28257         0.014202      0.020508     -0.019464
Li	      2.14000      6.50221     -4.40198        -0.005786     -0.012338      0.014837
Ti	     -0.12980      2.09504     -2.08969        -0.321400     -0.097608      0.094498
Ti	      2.21017      4.24202     -2.14799         0.325720      0.097512     -0.095058
Ni	      4.05295      6.27717     -6.27093         0.047335      0.050075     -0.046076
Ni	      4.33858      4.28503     -4.28050        -0.043933     -0.049632      0.046337
O	     -0.19253      6.34842     -4.25241        -0.355432     -0.059466      0.068017
O	      0.04850      4.12873     -2.03321         0.030669     -0.043805      0.041466
O	      2.04155      4.08881     -4.08780        -0.040021     -0.143045      0.145292
O	      0.03927      2.24838     -0.15063         0.037512      0.137077     -0.141251
O	      2.03214      2.20768     -2.20515        -0.027204      0.047464     -0.045036
O	      2.06915      6.34932     -6.34288        -0.004713      0.001590     -0.001181
O	     -1.98061      2.12446     -2.12021         0.347548      0.061415     -0.068813
O	      4.19581      6.32811     -4.22996         0.002944     -0.002067      0.002309
