# total energy = -243.38960994 eV
 
CRYSTAL
PRIMVEC
0.037277 6.208597 6.447057 
6.346195 0.020880 6.463210 
4.254723 4.173546 -0.009957 
PRIMCOORD
36 1
Li	      2.15739      2.03420      0.08648        -0.009527      0.026811      0.012895
Li	      2.13076      0.16483      2.06799        -0.004091      0.030313     -0.033864
Li	      4.21155      8.29738      8.48707        -0.001297      0.010356     -0.027235
Li	      0.12492      2.09820      2.18160         0.029937      0.018307      0.009666
Li	      2.00821      2.10099      4.12299         0.053848     -0.003676     -0.072458
Li	      6.30235      4.15653      6.59842        -0.008989     -0.030245      0.038408
Li	      4.31387      8.15424      4.29999         0.052081     -0.012962      0.019633
Li	      4.29213      6.27884      6.50958         0.046149      0.010260      0.003602
Li	      4.27488      4.19516      8.58643        -0.020597     -0.029176      0.008411
Sc	      8.37000      4.18547      4.19008        -0.052915     -0.049544     -0.039452
Mn	      2.11101      4.05110      2.13853         0.072036     -0.081813     -0.007807
Mn	      4.30893      4.20933      4.23574        -0.028006      0.046648     -0.023739
Mn	      8.49366      6.28297      6.49921         0.008869     -0.006325     -0.023334
Mn	      2.23332      6.25778      4.31313         0.052077     -0.079024      0.063640
Mn	      6.40390      8.31703      6.54054        -0.094058      0.086486     -0.021768
Cr	      4.29265     10.37661      6.43935        -0.003543     -0.051176      0.013989
Cr	      6.31783      2.12142      4.24769         0.065567      0.034207      0.034464
Cr	      6.36750      6.18940      8.64967        -0.116322     -0.026206      0.062524
O	      2.11798      2.17602      2.06981         0.009318     -0.051687      0.020685
O	      4.11816      4.18138      1.97429         0.012640      0.037072     -0.012301
O	      4.28985      2.18783      4.27098        -0.040309     -0.041294     -0.009225
O	      6.28951      4.13231      4.24047         0.071979     -0.000727     -0.002152
O	      6.19986      2.06063      6.31500        -0.063769      0.024125     -0.013562
O	      8.55987      4.31055      6.36126        -0.025607      0.034761     -0.070328
O	      2.33692      4.24211      4.34824         0.008710      0.123410     -0.022941
O	      4.33062      6.09825      4.34042         0.064437      0.115457      0.010133
O	      4.12761      4.04084      6.54182         0.056188     -0.026385      0.028572
O	      6.51870      6.27617      6.65757         0.027202      0.000862     -0.022998
O	      6.49836      4.19105      8.66590        -0.085892     -0.025262     -0.031768
O	      8.41588      6.12343      8.79148        -0.005092      0.102002     -0.057140
O	      2.07444      6.19837      6.31488         0.006873     -0.005292      0.052755
O	      4.49103      8.38640      6.38520        -0.027590     -0.066769      0.016921
O	      4.35879      6.20603      8.64325         0.028041     -0.032800      0.061000
O	      6.40930      8.20743      8.69752        -0.010589     -0.000797      0.047689
O	      6.30042      6.30091     10.75849        -0.055184     -0.046892      0.005033
O	      8.38684      8.27875     10.79285        -0.012579     -0.033026     -0.017948
