# total energy = -225.60034527 eV
 
CRYSTAL
PRIMVEC
0.033977 6.299906 6.192820 
6.280458 0.021226 6.205865 
4.216776 4.238445 -0.015943 
PRIMCOORD
36 1
Li	      6.32578      4.24572      2.07769         0.000963      0.043957     -0.043499
Li	      4.21019      6.38991      2.20354        -0.002154     -0.027653      0.038932
Li	      2.06434      2.16207      4.12714         0.023467     -0.001404     -0.087490
Li	      8.31764      6.45644      6.21659        -0.060798      0.008460      0.059900
Li	      6.22673      4.29321      6.22945         0.019452     -0.000664      0.019123
Li	      0.07258      4.12803      4.09352        -0.009631      0.013627     -0.088396
Li	      2.19585      6.24923      4.05331         0.011147      0.043266      0.031639
Li	      2.17388      4.14219      6.15740         0.018686     -0.032675      0.058567
Li	      8.45505      8.39567      8.25888         0.008170     -0.010497      0.023931
Sc	      2.16118      8.39446      6.18932        -0.128225     -0.125166      0.009071
Mn	      8.36398      4.29970      8.31135         0.211283     -0.134846     -0.048424
V	      0.09118      6.27947      6.16657         0.012732     -0.241083      0.045282
V	      6.27875      2.20022      4.06300         0.077901     -0.161220     -0.047388
Fe	      4.31368      6.20349      6.14724        -0.160127      0.128380      0.232817
Co	      4.22637      8.39276      8.25517         0.045710      0.278704     -0.049076
Co	      4.12814      0.07206      4.11639         0.017770     -0.039004     -0.056395
Co	      4.18909      4.25859      4.12543         0.131671     -0.082507     -0.187958
Co	      6.34782      6.29047      8.26719        -0.070852     -0.076277      0.040112
O	      2.08337      2.28931      2.05796         0.068701      0.153093      0.041563
O	      4.08806      4.24390      2.05864        -0.130492      0.024822      0.177903
O	      4.27684      2.23576      4.12599        -0.237704      0.015709     -0.649458
O	      6.20944      4.12414      4.07850        -0.099309      0.054519     -0.018785
O	      6.30779      2.04799      6.01691         0.007343     -0.018718      0.076065
O	      8.49107      4.23147      6.26813         0.077347      0.151408     -0.065203
O	      2.25387      4.22632      3.99750         0.000028      0.014981      0.034401
O	      4.22815      6.19720      4.19122         0.043946     -0.003355     -0.081204
O	      4.19452      4.26468      6.04466        -0.028676     -0.159894      0.016690
O	      6.25409      6.31652      6.36191         0.152734      0.093785     -0.146936
O	      6.45931      4.36808      8.29440        -0.006399     -0.233768      0.084118
O	      8.28823      6.20960      8.25996         0.038941      0.064213     -0.007077
O	      2.09858      6.32341      6.28212         0.074218      0.099605     -0.013337
O	      4.24582      8.43324      6.13132         0.060346      0.086862      0.595178
O	      4.35569      6.32893      8.23355         0.033264     -0.064079      0.020021
O	      6.34097      8.25383      8.38841        -0.190840      0.200950     -0.052286
O	      6.27896      6.43108     10.31496        -0.058820     -0.076808      0.051357
O	      8.29547      8.53154     10.32027         0.048208      0.013276     -0.013760
