# total energy = -215.33784691 eV
 
CRYSTAL
PRIMVEC
0.020097 6.826151 6.084155 
6.137375 0.015357 6.087544 
4.081579 4.542463 0.021509 
PRIMCOORD
36 1
Li	      2.04558      8.99953      6.09923         0.016591     -0.030079      0.081372
Li	      4.18338      6.85031     10.19339        -0.062654      0.113188      0.022031
Li	      4.11148      6.81131      2.11474        -0.014242     -0.001734     -0.045608
Li	      5.99125      6.94114      4.20539         0.041973      0.018463     -0.029835
Li	      4.07877      4.58597      4.21297        -0.027070     -0.066733     -0.051210
Li	      4.03918      2.49514      6.07475         0.052328      0.009845     -0.057875
Li	      6.02018      4.74734      6.07971         0.079638      0.086072     -0.118015
Li	      2.18708      4.46388      5.97917        -0.096825     -0.111824     -0.038410
Li	      4.14843      6.64912      6.05429        -0.055671      0.020151      0.008805
Sc	      4.07044      9.03515      8.01359        -0.027182      0.147635      0.099934
Mn	      4.06663      9.02486      4.12678        -0.028088     -0.069177      0.113316
V	      6.16544      2.61551      4.16723        -0.090005      0.517164     -0.350638
V	      8.20241      4.52587      8.03904         0.138230     -0.152366      0.071268
Fe	      6.15961      6.78037      8.01430        -0.133342      0.058717      0.054085
Cu	      6.14024      0.03528      6.09337        -0.378685      0.043367      0.112392
Cu	      2.08786      6.90088      8.03649        -0.041666      0.006441      0.348410
Cu	      2.07161      6.77372      4.12476        -0.017167     -0.051952      0.119130
Cu	      4.09906      4.59296      7.99341        -0.057949     -0.024477      0.047444
O	      4.09474      4.55303      6.11487        -0.002125      0.034131     -0.058768
O	      1.92975      6.87856      6.12637         0.359015      0.062924     -0.419368
O	      2.05515      2.49128      2.06556        -0.073237      0.105043     -0.044523
O	      4.06978      4.46010      2.09570         0.030366     -0.046824     -0.044761
O	      4.39847      2.25856      4.03667        -0.115255      0.028037      0.060609
O	      6.14242      4.38766      3.98207         0.013597     -0.189425      0.176955
O	      6.22920      2.38764      5.86918         0.015178     -0.108031      0.430091
O	      8.21766      4.57588      6.24918        -0.003158     -0.008939     -0.262795
O	      1.87727      4.40681      3.96440        -0.009012     -0.023255      0.064056
O	      3.96830      7.11584      4.08020        -0.128724      0.003616      0.072067
O	      6.17098      6.76436      6.16113        -0.024445      0.060001     -0.123175
O	      6.15445      4.65055      8.21961        -0.087381     -0.058735      0.013845
O	      8.17641      6.52869      8.22198         0.070364     -0.033849      0.030635
O	      4.05563      9.04925      5.99274         0.127655     -0.079026     -0.113486
O	      4.08469      6.98212      8.12710         0.231850      0.048393     -0.019453
O	      6.22739      8.83443      8.31074         0.036597     -0.215045     -0.032764
O	      6.20498      6.53239     10.17016         0.108853     -0.089998     -0.108940
O	      8.13734      9.22310     10.03182         0.151650     -0.001719     -0.006823
