# total energy = -95.82700977 eV
 
CRYSTAL
PRIMVEC
-0.000127 2.037731 2.037711 
18.937760 0.001304 0.000298 
-0.000262 2.037735 -2.037714 
PRIMCOORD
16 1
Li	      0.48928      0.00164      0.00047         0.035768     -0.000324      0.000042
Li	      2.64838      2.03720      0.00118        -0.004605     -0.000366      0.000171
Li	      4.42306      4.07396      0.00130        -0.042492      0.001276     -0.001566
Li	      9.02376      4.07359     -0.00054         0.034568      0.002468      0.000610
Ti	     11.58536      2.03782     -0.00088        -0.872530     -0.000377      0.000888
Ti	     14.33612      2.03871      2.03682         0.054017     -0.000294      0.001300
Ni	      6.70754      2.03551      0.00077         0.150030      0.000829     -0.000615
Ni	     16.94384      2.03980     -0.00089        -0.189190     -0.001129      0.001000
O	     14.04392      2.03866     -0.00074         0.051628     -0.000224     -0.001057
O	     16.25794      2.03940      2.03679        -0.214085     -0.000906      0.000931
O	      9.83411      2.03710     -0.00058         0.860390      0.000742      0.000333
O	     12.03060      2.03796      2.03687         0.009728     -0.001228     -0.001247
O	      4.78615      2.03617      0.00121        -0.195558      0.000593     -0.000566
O	      7.16280      4.07330      0.00075         0.020604      0.000708     -0.000179
O	     18.77801      2.04068      0.00075         0.291900     -0.001822      0.000172
O	      2.42580      2.03724     -2.03654         0.009826      0.000053     -0.000218
