# total energy = -218.02523423 eV
 
CRYSTAL
PRIMVEC
-0.036206 6.243270 6.306753 
6.171596 0.010162 6.260009 
4.123046 4.139850 -0.001610 
PRIMCOORD
36 1
Li	      6.17775      6.26489     12.48546         0.004340      0.016037     -0.021741
Li	      6.17692      8.23280     10.36348         0.015828     -0.010819      0.041298
Li	      6.19261      6.16295      4.20360        -0.048307      0.006772      0.003714
Li	      6.14099      4.20082      6.21689        -0.030264     -0.019151     -0.032849
Li	      8.13826      6.28987     10.53828        -0.003968     -0.006628      0.071940
Li	      6.20871      8.36575      6.42671         0.024002      0.030042     -0.013600
Li	      4.12401      6.17234      6.42187         0.009029     -0.033113      0.047014
Li	      8.07155      8.36925      8.42266        -0.024354      0.145652      0.075554
Li	      6.08610      6.37930      8.40294        -0.016161     -0.089240      0.043258
Sc	      0.06706      4.22963      4.32617         0.024342      0.044018     -0.152233
Ti	      6.06537      2.13865      8.30619        -0.199930      0.067318     -0.100746
Mn	      4.15420      4.14034      4.21362        -0.015795      0.136415      0.001511
Fe	      2.01845      8.21979      6.25923        -0.096215      0.141632     -0.078495
Co	      4.12489      8.30095      8.37059         0.501571     -0.067878     -0.331877
Co	      2.06632      4.13491      2.08145        -0.017109      0.088723     -0.025718
Co	      8.01038      6.20825      6.21745        -0.062030      0.063061      0.066339
Ni	      2.08322      6.17848      8.36641        -0.093914      0.166067     -0.034084
Ni	      4.09842      6.25321     10.47270        -0.060450      0.006806     -0.035777
O	      2.08669      2.18740      2.03410        -0.252636      0.187710     -0.013666
O	      4.02419      4.12108      2.19104        -0.155071      0.946797      0.191805
O	      4.12007      2.16978      4.09453         0.015934      0.112946      0.209519
O	      6.06787      4.15154      4.10248        -0.097951      0.011524      0.117691
O	      6.17194      2.04741      6.42953        -0.006981      0.015970      0.117901
O	      8.21571      4.15975      6.37275         0.013794      0.019853      0.051784
O	      2.16073      4.15302      4.03426         0.060395     -0.034333     -0.051895
O	      4.13855      6.10594      4.04006         0.018353     -0.022112     -0.018185
O	      4.13158      4.08901      6.08587        -0.030576     -0.079311     -0.009301
O	      6.25012      6.23132      6.27313         0.089579     -0.003020     -0.051664
O	      6.25812      4.02682      8.42895         0.089805     -0.137352      0.016808
O	      8.29168      6.13985      8.29442         0.150859     -0.091611     -0.074550
O	      2.03390      6.31973      6.35605        -0.011767     -0.126496     -0.118282
O	      4.06138      8.30516      6.40768         0.055772      0.049604     -0.093339
O	      4.06373      6.40063      8.46456        -0.187552     -1.333855      0.130278
O	      6.01743      8.34842      8.36807         0.211418     -0.083858      0.010360
O	      6.12668      6.19720     10.48077         0.139903      0.010699      0.040172
O	      8.25611      8.34275     10.53983        -0.013893     -0.128870      0.021058
