# total energy = -216.16753563 eV
 
CRYSTAL
PRIMVEC
-0.014479 6.342553 6.173847 
6.309447 -0.008183 6.167487 
4.196104 4.213946 0.005017 
PRIMCOORD
36 1
Li	      6.30230      6.42069     12.24469         0.024400     -0.125789     -0.058194
Li	      6.30648      2.09148      4.22479        -0.010312     -0.013756     -0.044573
Li	      6.29163      6.30297      4.26075         0.075774      0.020997      0.075092
Li	      4.20919      4.26510      4.25637        -0.024602     -0.048490     -0.031042
Li	      4.22236      2.23135      6.09725        -0.104024      0.082887     -0.059444
Li	      6.21815      4.18038      6.07559        -0.094395      0.127702     -0.020052
Li	      2.11949      6.33839      4.17725        -0.048172     -0.023512      0.008726
Li	      4.22260      6.18659      6.09794         0.039224     -0.006017     -0.012889
Li	      4.26416      4.14823      8.14055         0.006730     -0.004813     -0.079091
Sc	      8.43977      4.24265      8.18609        -0.045193     -0.019799      0.150446
Ti	      6.29343     10.47275      8.25985         0.054112     -0.142083      0.052608
Mn	      4.19167      8.41919      8.25578         0.022243      0.046219     -0.173755
Fe	      4.16472      8.41452      4.19727         0.087159      0.413828      0.021420
Fe	      6.37732      6.32020      8.16872        -0.292406      0.231059     -0.088008
Co	     10.43567      6.36511      8.21375        -0.141483      0.090381     -0.268781
Cu	      8.39414      4.21271      4.18185         0.112895      0.013771     -0.174867
Ni	      8.34483      8.42811     12.30639         0.250693     -0.163511      0.058201
Ni	      2.16443      4.22312      6.10725        -0.034577     -0.067076      0.006060
O	      4.10658      4.23688      6.15135         0.235071     -0.009683      0.023428
O	      2.12943      2.03551      2.03280        -0.148282     -0.073285      0.088971
O	      4.28022      4.16207      2.12822         0.037900      0.166018      0.016090
O	      4.20808      2.01725      3.96100        -0.020167      0.060504      0.151273
O	      6.37691      4.20111      3.99619        -0.155375     -0.024591     -0.011517
O	      6.32935      2.07889      6.33974        -0.137773      0.108271      0.519367
O	      8.41494      4.15646      6.14294        -0.000684      0.064621      0.103934
O	      1.97001      4.23227      4.09686         0.102551      0.016778     -0.229639
O	      4.14947      6.44309      3.93833         0.121509     -0.371520     -0.218123
O	      6.25498      6.41609      6.29085         0.000563     -0.111405     -0.310352
O	      6.32889      4.27889      8.25140         0.003892     -0.260330     -0.015958
O	      8.36189      6.30052      8.23741         0.219820     -0.064724     -0.011015
O	      2.10990      6.32724      6.31344        -0.064943      0.102593      0.111849
O	      4.22267      8.44261      6.23902        -0.078094      0.057681      0.182080
O	      4.12152      6.41160      8.29113        -0.022595     -0.162072     -0.079604
O	      6.22672      8.50128      8.22539         0.117344      0.138568      0.113022
O	      6.20106      6.28141     10.16675         0.167675      0.026263      0.393267
O	      8.47735      8.52433     10.32320        -0.256479     -0.075684     -0.188931
