# total energy = -103.38072683 eV
 
CRYSTAL
PRIMVEC
2.042436 4.224730 2.034559 
4.116531 -2.113371 -2.064007 
-0.011359 4.314240 -4.235549 
PRIMCOORD
16 1
Li	      4.13952     -1.89084     -2.17687         0.003788      0.015687     -0.029812
Li	      1.94333      2.11234     -0.04423         0.018408      0.021446     -0.009608
Li	      2.14734      0.05444     -2.07944        -0.035230     -0.010937      0.011921
Li	      4.09505     -0.00604     -4.01197         0.005885     -0.022813      0.004519
Ti	      2.01174      4.21633     -2.01461         0.002425     -0.047783      0.308588
Ti	      4.03973      6.44460     -2.30319        -0.133962      0.119289     -0.218200
Ni	      4.11544      2.07233     -2.05374         0.018523      0.078779      0.067291
Ni	      4.13120      4.29965     -4.30058         0.033017      0.015355      0.037466
O	      2.07862      2.28201     -2.22493        -0.120908      0.148109     -0.023406
O	      4.01075      4.35781     -2.17462        -0.052527      0.079388      0.078453
O	      2.01971      4.12749     -4.16945        -0.083369     -0.177065      0.020268
O	      4.13764      2.06912      0.05094        -0.011725      0.088926      0.314598
O	      4.11062      0.07447     -2.04309        -0.007869     -0.133119     -0.150309
O	      2.04030      4.26439     -0.16232         0.105017     -0.007528     -0.327044
O	      4.11637      2.19091     -4.17753         0.026410     -0.089996     -0.083451
O	      2.12879      6.23583     -2.20699         0.232116     -0.077738     -0.001276
