# total energy = -228.37650553 eV
 
CRYSTAL
PRIMVEC
0.029777 6.215418 6.415202 
6.288480 0.045868 6.399466 
4.193830 4.134451 0.029960 
PRIMCOORD
36 1
Li	     10.37564      4.18334      6.32936        -0.102679     -0.023941     -0.036433
Li	      8.42875      8.37931     12.74510         0.001113      0.060420      0.017203
Li	      6.31606      2.08091      4.37885        -0.008100      0.044505      0.051142
Li	      8.37819      4.22657      8.58343        -0.000889     -0.036899      0.066908
Li	      6.27536      6.22012      4.32705        -0.030761      0.015345     -0.011034
Li	      4.19443      2.03913      6.29156         0.007314     -0.072729     -0.035207
Li	      4.19832      8.28058      4.43161         0.007862     -0.000040      0.028018
Li	      4.25136      6.22960      6.33224         0.052289      0.010512     -0.024966
Li	      8.39933      8.34297      8.62229         0.037737      0.010446      0.030467
Sc	      4.11273      2.10402      2.10708        -0.096070      0.016461     -0.060360
Ti	      6.23477      2.20792      8.43383         0.016586      0.270335     -0.314503
Mn	      2.14588      6.19445      8.49563        -0.001286      0.125090     -0.033127
Fe	      4.21459      4.12394      4.37779         0.070556      0.036247     -0.228328
Fe	      8.39364      6.41507     10.78530         0.109070     -0.174648      0.027701
Fe	      6.29749      8.25385      6.39118        -0.012703     -0.045392      0.076213
Fe	      6.37448      6.15346      8.59286         0.036429     -0.021679     -0.106587
Co	      6.34247      4.17945      6.36537        -0.009621     -0.047087      0.116406
Co	      8.44434     10.35258     10.74216        -0.016758     -0.128072     -0.045281
O	      1.99542      1.96977      2.10636         0.014932      0.003754      0.026164
O	      4.12169      4.20426      2.23560         0.018127      0.007335      0.096180
O	      4.18162      2.06525      4.21791         0.039343     -0.007915      0.015584
O	      6.33396      4.13380      4.12971         0.019041      0.002802     -0.002850
O	      6.22039      2.09871      6.57655         0.033992      0.324446      0.214301
O	      8.30720      4.15404      6.19385        -0.425008      0.083588      0.123457
O	      2.18604      4.22735      4.37564        -0.015300      0.005497      0.102422
O	      4.14995      6.16695      4.17963        -0.015976     -0.025885      0.013378
O	      4.22808      4.16994      6.31123         0.323096     -0.058076      0.117484
O	      6.31608      6.25021      6.59100         0.074903     -0.382581     -0.112879
O	      6.36626      4.12316      8.56544        -0.016530     -0.192577     -0.031006
O	      8.43193      6.27576      8.69145         0.063287     -0.005671      0.032725
O	      2.15193      6.17330      6.46572        -0.009904     -0.035683     -0.061404
O	      4.31305      8.26640      6.49806         0.034708      0.059255      0.006727
O	      4.34994      6.23262      8.73903        -0.098053      0.027969     -0.007890
O	      6.31508      8.34309      8.48645         0.005284     -0.115243     -0.112325
O	      6.32488      6.26005     10.60419        -0.088715      0.024057      0.089402
O	      8.41394      8.33471     10.74665        -0.017316      0.246056     -0.027704
