# total energy = -236.56082415 eV
 
CRYSTAL
PRIMVEC
-0.019508 6.292078 6.374151 
6.236448 0.004415 6.350222 
4.159671 4.180864 0.000953 
PRIMCOORD
36 1
Li	      8.32860      4.19978      4.29275        -0.030558      0.019542     -0.007093
Li	      6.24707      2.07068      4.30240         0.055000     -0.019550     -0.017851
Li	      6.13616      2.17510      8.38811         0.016971      0.002058     -0.043481
Li	      8.24052      4.29340      8.37444        -0.007620     -0.003488     -0.055288
Li	      4.17907      4.17527      4.30764         0.013450     -0.009540      0.033773
Li	      6.15389      4.20520      6.50133        -0.010630      0.008301      0.043238
Li	      4.23360      6.16988      6.39158         0.034144     -0.054613      0.036260
Li	      4.26631      4.13444      8.41190        -0.027614     -0.050721     -0.021823
Li	      6.26497      6.16898      8.41142         0.011314      0.015488     -0.062183
Sc	      2.14220      4.17155      6.39446         0.011986     -0.057305     -0.013588
Ti	      6.29227      4.17231      2.22453         0.160740     -0.027412      0.323300
Mn	      8.32632      6.30201     10.46624         0.036735     -0.006953     -0.018541
V	      6.18937      6.26831      4.22553        -0.077356      0.028481      0.074973
Cr	      4.14186      2.12102      2.14493         0.007588     -0.064379      0.057379
Cr	      8.37065      6.24279      6.39731        -0.024342     -0.024167     -0.057585
Fe	      6.15698      4.23509     10.40137         0.033235      0.012168      0.177438
Co	      0.01816      0.00958      0.02534        -0.103707      0.036552     -0.029159
Ni	      8.26351      2.15355      6.34444        -0.020453      0.039482      0.008245
O	      2.11479      2.02805      2.14366         0.011478     -0.065493      0.046764
O	      4.24791      4.12548      1.99465         0.021996      0.036498     -0.030034
O	      4.01376      2.12322      4.18888         0.120808     -0.012986      0.037914
O	      6.17569      4.25916      4.11643         0.049300     -0.071362     -0.293455
O	      6.21783      1.95625      6.33730        -0.075398     -0.061511     -0.009135
O	      8.47721      4.20850      6.31722         0.075880      0.112762     -0.003076
O	      2.00384      4.24259      4.28495         0.047858      0.048017      0.012620
O	      4.12661      6.37225      4.29473        -0.074408     -0.052548     -0.019258
O	      4.13846      4.09919      6.35718        -0.035445      0.016879      0.008129
O	      6.29777      6.28393      6.27847        -0.014574      0.017109      0.028009
O	      6.21685      4.22671      8.55520         0.017677     -0.032225     -0.234893
O	      8.29480      6.27956      8.38353        -0.004533      0.011295     -0.017063
O	      1.97957      6.31227      6.49965        -0.043020     -0.092142      0.031125
O	      4.11406      8.49989      6.47340         0.096359      0.062827      0.002071
O	      4.01569      6.38459      8.46696        -0.195528      0.021153      0.042629
O	      6.13605      8.49797      8.49969         0.031360      0.111957      0.021080
O	      6.36088      6.22216     10.77259        -0.024931      0.113310      0.049084
O	      8.34727      8.24386     10.66318        -0.083764     -0.007487     -0.100525
