# total energy = -91.45263956 eV
 
CRYSTAL
PRIMVEC
0.000612 2.066343 2.074254 
6.143142 0.021444 -2.094068 
-2.049817 6.304760 -4.254642 
PRIMCOORD
16 1
Li	      4.05467      2.17643     -2.18596         0.005722      0.006693     -0.006745
Li	     -0.04560      4.28437     -0.14160         0.013044     -0.016553     -0.002896
Li	      2.10092      4.25321     -2.20938         0.009225      0.019018     -0.002734
Li	      2.06228      6.22045     -4.17554         0.020069     -0.014613      0.028100
Mn	      6.02247      2.07743     -0.01481        -0.018216      0.019441     -0.025034
Mn	      2.14912      2.08950     -0.02435         0.003692      0.015795     -0.030841
Ni	      4.05626      4.15306     -4.15893        -0.061201      0.081942     -0.093667
Ni	      0.10589      6.22833     -2.10373         0.037380      0.081711     -0.091034
O	     -0.11123      4.26389     -2.20942        -0.002561     -0.134709      0.152761
O	      0.06060      1.94095      0.12952         0.039188      0.003780     -0.016473
O	      4.12431      6.38611     -4.35120        -0.061845      0.020704     -0.022862
O	      4.10333      4.27761     -2.20655         0.002296     -0.106538      0.096642
O	      0.03670      6.36637     -4.32679         0.022020      0.063962     -0.047931
O	      4.04709      2.10822     -0.04908        -0.112326     -0.000491      0.012552
O	      2.09524      6.25649     -2.13673         0.091327     -0.009363      0.005278
O	      2.00624      1.93715     -1.94021         0.012187     -0.030779      0.044884
