# total energy = -242.03827669 eV
 
CRYSTAL
PRIMVEC
0.017035 6.385422 6.198059 
6.431133 0.016030 6.199213 
4.292345 4.262738 0.005543 
PRIMCOORD
36 1
Li	      0.16526      6.34808      6.20783         0.022401      0.033202      0.010219
Li	      2.13025      2.06757      0.10066        -0.066221      0.003028      0.028432
Li	      2.05824      0.03361      1.96785        -0.073408      0.115385     -0.041171
Li	      6.39433      2.16722      8.20459         0.043873     -0.067441     -0.029673
Li	      8.61670      6.41538      6.28686         0.040832     -0.023404     -0.034389
Li	      6.42891      4.23226      6.24836        -0.005358      0.007173      0.013157
Li	      0.05175      4.27237      4.16601         0.015863      0.017222      0.043270
Li	      2.11106      6.35305      4.17909         0.003359     -0.028080      0.036476
Li	      2.10480      4.37251      6.17733        -0.003577     -0.010582     -0.037554
Sc	      4.14656      6.40563      6.20759        -0.068359     -0.122607     -0.045164
Ti	      6.58845      8.48886     10.43475        -0.041742      0.102097      1.160320
Mn	      4.31060      8.57672      8.18379        -0.020131      0.052766     -0.015650
Mn	      8.59253      4.24817      4.29768         0.042291      0.084700     -0.017126
Mn	      8.56643      4.26936      8.20472        -0.127699      0.133447     -0.092879
V	      6.50430      6.39839      8.19304         0.068639     -0.065969     -0.330484
Cr	      6.42324      6.39666      4.16276         0.029368     -0.068455      0.012391
Cr	      4.28926      4.26317      4.16162         0.014114     -0.078803      0.108386
Cu	      8.59971      8.41198      8.19733         0.119304      0.020299     -0.118478
O	      2.13322      2.27128      2.16060        -0.077606     -0.095215     -0.005030
O	      4.19225      4.16166      2.13059         0.048763     -0.059044      0.009041
O	      4.28389      2.21842      4.04803        -0.011350     -0.074247     -0.074453
O	      6.35627      4.24783      4.08783        -0.036497     -0.070560     -0.085242
O	      6.43381      2.15117      6.05682         0.060313     -0.027121     -0.902164
O	      8.56738      4.24940      6.28387        -0.006511     -0.025612      0.151738
O	      2.25234      4.12576      4.07507         0.036996      0.155643     -0.027405
O	      4.43819      6.27261      4.12153        -0.099677      0.104894      0.058957
O	      4.30643      4.28607      6.20058         0.009474      0.021653     -0.110679
O	      6.40857      6.39476      6.20095        -0.000973      0.008233      0.030850
O	      6.56160      4.46135      8.31013        -0.158060     -0.177763      0.104109
O	      8.54017      6.21385      8.27194         0.085948      0.149085      0.077881
O	      2.17851      6.40144      6.19926         0.121691     -0.040988      0.006506
O	      4.29871      8.50646      6.27789         0.001025      0.055983     -0.044743
O	      4.39066      6.61313      8.30353        -0.086844     -0.021483     -0.015869
O	      6.43496      8.38055      8.30355         0.079703      0.113607      0.017233
O	      6.43365      6.57316     10.24257         0.073950     -0.048499      0.112368
O	      8.45895      8.55816     10.19207        -0.033893     -0.072544      0.046821
