# total energy = -234.46712407 eV
 
CRYSTAL
PRIMVEC
0.000565 6.331940 6.252942 
6.228462 0.015091 6.237782 
4.178547 4.236988 -0.015210 
PRIMCOORD
36 1
Li	      4.09781      4.26461      0.09382         0.045718      0.009578     -0.052190
Li	      4.16928      8.38497      8.32684         0.018277     -0.055747      0.006841
Li	      4.17828      6.30013     10.34425         0.051164     -0.017951      0.019945
Li	      8.27640      4.30402      8.18340        -0.011718      0.015473      0.045777
Li	      8.27301      6.20831      6.34166        -0.016065     -0.032076     -0.006432
Li	      6.36695      4.30131      6.34723         0.057169      0.006257     -0.039849
Li	      6.21422      4.25455     10.26453        -0.005451     -0.002967      0.013447
Li	      4.26211      4.32327      8.31300        -0.038176     -0.057074      0.008915
Li	      6.13191      6.15448      8.30595        -0.022055     -0.072008      0.026104
Sc	      8.31906      6.31504     10.34037        -0.168259      0.038391     -0.116696
Ti	      6.13536      2.06390      4.18370         0.088684     -0.407281      0.030606
V	      6.23335      8.39401      6.32465        -0.140369     -0.061599      0.039161
Cr	      2.11211      6.33617      8.32279         0.126308      0.142959      0.058175
Cr	      2.11480      2.10602      4.17045         0.045906      0.033203      0.000310
Fe	      8.42072      2.34693      6.22849         0.102667     -0.221313     -0.046245
Fe	      6.17123      2.23404      8.20502         0.012020      0.024915     -0.012917
Co	      4.17694      4.21488      4.10627        -0.073480      0.012318      0.060892
Ni	      4.19248      6.33986      6.31395        -0.033120     -0.025172     -0.018053
O	      2.07735      2.04500      2.07989         0.035169      0.040062      0.010639
O	      4.27283      4.38155      2.07460        -0.035812     -0.037092      0.161332
O	      4.19244      2.14407      4.18135         0.021312      0.072515     -0.021106
O	      6.27996      4.27971      4.07412        -0.062651     -0.072211      0.087584
O	      6.29159      2.18011      6.13428         0.015060     -0.020991     -0.086552
O	      8.37460      4.16558      6.22372        -0.015399      0.280310     -0.038063
O	      2.03277      4.14444      4.28970         0.132122     -0.042005     -0.036194
O	      4.25930      6.33222      4.17142        -0.031707     -0.083244     -0.098017
O	      3.87245      4.26453      6.23497         0.282889     -0.037296     -0.125433
O	      6.23646      6.42924      6.16896         0.124688     -0.116285     -0.128028
O	      6.23185      4.13127      8.30855         0.042445      0.064603     -0.024462
O	      8.40928      6.31004      8.35033        -0.072188      0.009996      0.044003
O	      2.09269      6.27743      6.28323        -0.099664      0.074504      0.074939
O	      4.29077      8.45214      6.24541        -0.190786      0.047364      0.032401
O	      4.09618      6.32596      8.29466        -0.099815      0.034768      0.140230
O	      6.21465      8.54912      8.36516        -0.015621      0.118692      0.049703
O	      6.25118      6.53045     10.35444        -0.038624      0.303916      0.036941
O	      8.20303      8.39769     10.50641        -0.030640      0.032489     -0.097706
