# total energy = -229.20516523 eV
 
CRYSTAL
PRIMVEC
-0.005749 6.318290 6.379520 
6.162346 0.004572 6.368626 
4.110185 4.206744 0.001153 
PRIMCOORD
36 1
Li	      4.11477      4.23929      0.19558         0.045817     -0.051301      0.081723
Li	      6.05165      4.26320      2.13337         0.064643     -0.094368     -0.016956
Li	      4.06597      2.17782      2.13768         0.123774      0.071573     -0.047888
Li	      0.05091      2.18566      2.18827        -0.109488     -0.065760      0.124927
Li	      2.15843      4.13665      2.14155        -0.016404      0.149601     -0.000645
Li	      4.09236      4.29967      4.08374        -0.031238      0.113553     -0.033185
Li	      0.04768      4.10774      4.18372         0.042482     -0.070730     -0.004573
Li	      4.06288      6.29396      6.23893        -0.001753      0.007986     -0.129447
Li	      4.12427      4.18048      8.43158        -0.062001     -0.008258     -0.013871
Sc	      6.16301      6.27708      8.50807         0.133538      0.097014     -0.109446
Ti	      8.19726     10.45202     10.58171         0.028307     -0.103665     -0.313957
V	      6.03633      8.50711      6.39500        -0.116046      0.227796     -0.086649
Cr	      8.27067      6.30127      6.41815        -0.055357     -0.053574      0.185075
Cr	      6.11767      4.20795      6.38466        -0.059921      0.118533      0.074536
Cr	      2.12552      6.29354      4.23078         0.059036     -0.096523     -0.063212
Cu	      6.13161      2.13192      4.19486         0.017807      0.081586     -0.117194
Ni	      2.08678      2.07251      0.13540         0.182526     -0.102324     -0.013197
Ni	      1.99435      2.18015      4.12418        -0.151990      0.107128      0.017332
O	      4.11530      4.20942      2.13599        -0.015878     -0.062374     -0.034547
O	      2.09279      2.11602      2.11687        -0.000434     -0.021052      0.027210
O	      4.16701      1.96815      4.38655        -0.096840     -0.091294     -0.008182
O	      6.25523      4.30800      4.35767         0.031114     -0.183378      0.006829
O	      6.14146      2.22356      6.33887        -0.044393     -0.002460     -0.092644
O	      8.16108      4.24261      6.29729        -0.010995      0.031798     -0.038540
O	      2.05815      4.28054      4.40480         0.004959     -0.005208     -0.035538
O	      4.05734      6.34652      4.23163         0.102537      0.094075      0.078951
O	      4.05667      4.09236      6.36884         0.121253     -0.016139      0.021432
O	      6.22029      6.33066      6.34325         0.014068     -0.123602      0.004963
O	      6.13169      4.27213      8.33318        -0.010419     -0.081613      0.018946
O	      8.21544      6.31935      8.51494        -0.133005      0.093999     -0.079370
O	      2.07123      6.22506      6.25078         0.029612      0.092563     -0.035317
O	      4.25253      8.37559      6.39853        -0.096382     -0.042402     -0.003331
O	      4.09274      6.29033      8.74129        -0.088460      0.020191      0.345550
O	      6.16403      8.40506      8.34934         0.078344     -0.210317      0.262063
O	      6.11647      6.24397     10.59679        -0.099194      0.091172      0.056992
O	      8.12006      8.42865     10.74921         0.120379      0.087779     -0.028841
