# total energy = -240.40294647 eV
 
CRYSTAL
PRIMVEC
0.009913 6.273090 6.356866 
6.360798 0.004460 6.362452 
4.241638 4.186788 0.001814 
PRIMCOORD
36 1
Li	      6.23496      4.27290      2.16215        -0.004253     -0.006411     -0.028407
Li	      6.27121      2.17366      4.27603        -0.049622      0.049938      0.019200
Li	      4.24799      6.10835      2.24568        -0.012068      0.002569     -0.047188
Li	      2.27097      4.18027      2.17012        -0.030994     -0.002733      0.006064
Li	      6.30915      6.25804      4.19163         0.021981      0.015307     -0.031412
Li	      4.25012      4.26018      4.16340         0.016059     -0.072633     -0.000660
Li	      4.20353      2.18036      6.36625         0.001963     -0.048220      0.041734
Li	      2.24961      6.18308      4.20755         0.026878     -0.016449     -0.006270
Li	      4.27571      6.17197      6.25257         0.013208      0.020464     -0.039957
Sc	      4.14739      0.11124      4.23411        -0.068783      0.063288      0.066302
Sc	      4.33990      8.20229      4.19159         0.068183     -0.038097     -0.026415
Cr	      2.13510      8.32058      6.37448         0.020741     -0.033056     -0.023561
Cr	      4.21448      2.13650      2.12490         0.005668      0.033973      0.018214
Cr	      6.32230      4.19029      6.35141        -0.009667      0.011833      0.058371
Cr	      2.20316      4.17872      6.29713        -0.007225      0.024385     -0.030268
Fe	      6.39397      0.11326      6.38402        -0.135430     -0.005788     -0.114188
Fe	      8.43918      8.31717      8.52262         0.049478      0.097988      0.071302
Fe	      6.42830      6.29029      8.49017        -0.047488     -0.057090      0.126411
O	      2.25963      2.06509      1.96399        -0.030870      0.006387      0.026884
O	      4.22573      4.12434      1.96670         0.045243     -0.054991      0.120521
O	      4.25233      2.11242      4.09020        -0.035947      0.021219      0.030868
O	      6.36159      4.19164      4.40632         0.003322      0.039040     -0.054882
O	      6.47476      2.11414      6.38940        -0.009741      0.118811     -0.015976
O	      8.42754      4.10208      6.35499        -0.004706     -0.003213     -0.012696
O	      2.12032      4.16142      4.35857        -0.009880     -0.008141      0.000157
O	      4.26168      6.28224      4.21818         0.007664     -0.039295      0.020377
O	      4.23631      4.19238      6.50964         0.028379     -0.023555     -0.099424
O	      6.38205      6.28045      6.48263        -0.008041      0.014380     -0.081482
O	      6.26823      4.25767      8.43682         0.015940     -0.027706     -0.006948
O	      8.37641      6.36735      8.52572         0.089982     -0.091546      0.008530
O	      2.02726      6.26127      6.33738         0.134443      0.003816     -0.040400
O	      4.27727      8.43277      6.37193        -0.000724     -0.065184      0.014192
O	      4.32519      6.29621      8.51362        -0.015589      0.001222     -0.000572
O	      6.37499      8.34149      8.37651        -0.080345      0.055586     -0.015680
O	      6.29638      6.26342     10.64878        -0.023997     -0.011876     -0.039349
O	      8.51700      8.40085     10.58547         0.036238      0.025780      0.086606
