# total energy = -240.66789404 eV
 
CRYSTAL
PRIMVEC
0.006167 6.351070 6.368035 
6.308875 0.007333 6.365946 
4.213949 4.240877 -0.002599 
PRIMCOORD
36 1
Li	     10.34840      4.39573      6.50496        -0.060192      0.073806      0.021109
Li	      4.09971      2.25595      2.41621        -0.015738      0.001368     -0.008360
Li	      4.18814      0.21058      4.36993        -0.025326      0.006842      0.046854
Li	      6.05709      2.16080      4.33749         0.041826      0.033041      0.020203
Li	      0.09324      2.00409      2.01639        -0.001231      0.005151     -0.040179
Li	      2.32071      4.07118      2.08425         0.036118     -0.054178      0.018360
Li	      2.27554      2.09130      4.14265         0.003793     -0.024582      0.007465
Li	      4.26005      4.01087      4.18022         0.009543     -0.016075      0.031536
Li	      4.35373      1.97326      6.16569         0.058276     -0.076570      0.043835
Sc	      8.45199      6.37076     10.55338        -0.004026     -0.075645     -0.010373
Sc	      2.14288      4.16879      6.30612         0.012098      0.011178     -0.047097
Mn	      8.39462      8.51081      8.48862        -0.031234      0.026331      0.016484
Cr	      2.09878      2.14975      0.04005        -0.002992      0.024665      0.029428
Cr	      6.33970      4.21308      6.25490        -0.030856      0.003428     -0.008162
Cr	      0.01427      4.22442      4.22976         0.031727      0.002143     -0.030600
Cr	      6.26299      6.38433      8.50987        -0.037071      0.054384     -0.011530
Fe	      6.16671      4.34554      2.34417         0.191342     -0.098624     -0.130244
Co	      4.21461      6.35114      6.33214         0.005999     -0.012831     -0.032058
O	      4.17885      2.11235      4.29813         0.013172     -0.011282      0.009429
O	      2.13098      2.01909      2.03007         0.039913      0.108090     -0.013171
O	      4.31832      4.24470      2.09532        -0.227592     -0.047516     -0.002603
O	      6.33521      4.23676      4.24922         0.025774     -0.008983      0.182030
O	      6.42364      2.23967      6.36598        -0.085862     -0.056720     -0.018438
O	      8.31505      4.13492      6.42980         0.089310      0.049032      0.017121
O	      2.02382      4.28947      4.26420         0.000835      0.003496     -0.027060
O	      4.21815      6.47332      4.37043         0.018440     -0.014074      0.088624
O	      4.24664      4.40349      6.29240         0.013159      0.076739     -0.023047
O	      6.17837      6.31694      6.47223        -0.121206      0.026497     -0.037900
O	      6.15592      4.35310      8.49993         0.034723     -0.002186     -0.022870
O	      8.29949      6.55184      8.49138        -0.003339     -0.044667     -0.029968
O	      2.23395      6.35434      6.36276         0.126157      0.010880     -0.025205
O	      4.21226      8.34405      6.25896         0.015299     -0.058407      0.003171
O	      4.20631      6.22978      8.31525         0.000670      0.083773     -0.088570
O	      6.42695      8.45748      8.42990        -0.049064     -0.006680      0.000416
O	      6.34507      6.25758     10.49593        -0.038820      0.024126      0.039042
O	      8.54141      8.45394     10.70000        -0.033627     -0.015947      0.032326
