# total energy = -239.13246710 eV
 
CRYSTAL
PRIMVEC
-0.018470 6.408732 6.331095 
6.252436 -0.014727 6.327408 
4.154503 4.256357 0.003827 
PRIMCOORD
36 1
Li	     10.35151      4.21806      6.30122        -0.018383     -0.019060     -0.026196
Li	      8.35747      8.59760     12.55726         0.067475      0.038905     -0.062022
Li	      4.13895      2.18044      2.07420         0.000936      0.056124     -0.072932
Li	     10.39125      6.40028      8.47254        -0.013217      0.002568      0.161677
Li	      4.14187      4.28343      4.25278        -0.007599      0.071209      0.015087
Li	      4.20484      2.09868      6.29658        -0.013137     -0.039753      0.059365
Li	      6.25995      4.16832      6.31989         0.010201     -0.049294      0.042261
Li	      4.14340      8.47423      4.26896         0.073425     -0.094664     -0.018775
Li	      8.31547      6.42878     10.58127        -0.060081      0.024318      0.008941
Sc	      6.10422      4.32924      2.09855        -0.064684      0.095069     -0.059992
Sc	      8.34800      4.22483      8.35151        -0.041143      0.039734      0.004283
Mn	      6.22895      6.35949      8.46744         0.069176     -0.066571     -0.045495
Cr	      6.19166      2.11265      4.37040         0.002672     -0.032347      0.330703
Cr	      2.12331      2.12255      4.25651        -0.022945      0.039820     -0.002603
Cr	      2.05353      4.28870      6.28204        -0.008328     -0.019780     -0.067734
Cr	      8.34365      8.47867      8.43872         0.074936     -0.087522     -0.017752
Fe	      4.11709      6.44531      6.21108         0.068795     -0.086076      0.095085
Ni	      8.33936      4.23219      4.35271         0.027363     -0.012965     -0.019868
O	      2.10090      2.12773      2.24327         0.036474     -0.057779      0.018077
O	      4.14138      4.29353      2.09712         0.091182      0.032665     -0.012781
O	      4.25477      2.06824      4.21032         0.115312      0.119643     -0.021297
O	      6.27555      4.25311      4.20883        -0.108030     -0.068784     -0.032235
O	      6.26088      2.11176      6.14277        -0.026555      0.013374     -0.414703
O	      8.32246      4.22190      6.37403        -0.026239     -0.004859      0.080065
O	      2.10993      4.12287      4.28141         0.005820     -0.004119      0.040872
O	      4.28293      6.35729      4.29453         0.022580     -0.005899     -0.076935
O	      4.08504      4.34947      6.43412        -0.002153     -0.032119     -0.009394
O	      6.20423      6.50534      6.33696         0.024839     -0.001547     -0.044277
O	      6.19368      4.25034      8.45732        -0.055534     -0.030793      0.032282
O	      8.16270      6.42814      8.45792        -0.011932      0.025321      0.011404
O	      2.12574      6.31666      6.33283        -0.068752     -0.001310      0.033840
O	      4.20794      8.41718      6.33616         0.009825      0.089778     -0.020285
O	      4.26871      6.27152      8.41764        -0.078636      0.019859     -0.060761
O	      6.28858      8.57815      8.42212        -0.049004      0.037289      0.035121
O	      6.19856      6.56014     10.46585         0.100382      0.104010      0.111455
O	      8.12753      8.56730     10.45343        -0.125041     -0.094445      0.005520
