# total energy = -242.80793588 eV
 
CRYSTAL
PRIMVEC
0.025385 6.439022 6.364127 
6.157759 0.031182 6.358585 
4.126509 4.309916 -0.000439 
PRIMCOORD
36 1
Li	      6.14739      0.15337      6.40106         0.034955      0.009734      0.033865
Li	      6.09369      4.44873      2.17190         0.018112      0.086359     -0.024761
Li	      6.16786      2.21020      4.31232         0.010461      0.003092     -0.031378
Li	      0.12721      2.07777      2.05948        -0.087750     -0.024553     -0.025859
Li	      2.00863      4.23798      2.19693         0.003938     -0.028302      0.083928
Li	      6.13149      6.47550      4.19808        -0.014652      0.025999      0.019786
Li	      6.21822      4.27612      6.36155         0.021317      0.002185      0.022499
Li	      0.09294      4.25914      4.22464         0.032830     -0.035192      0.012695
Li	      6.16372      8.56088      6.30932        -0.069156     -0.018680     -0.015721
Sc	      4.10770      2.29068      2.12779        -0.008091      0.162626     -0.089706
Sc	      8.25742      8.59049      8.50406         0.062910     -0.069458      0.033239
Mn	      8.18137      4.33079      4.25508         0.022217     -0.033877     -0.007034
Cr	      8.15510      2.18660      6.35293        -0.008636      0.044029     -0.028804
Cr	      4.17694      4.34124      4.25345        -0.051826      0.073843     -0.063166
Cr	      4.15713      2.14597      6.32567         0.024849     -0.047664      0.075219
Cr	      4.15437      6.46898      6.33847        -0.035725     -0.014316     -0.052558
Fe	      2.01494      6.35884      4.29772         0.027831      0.103473     -0.020072
Fe	      6.22632      6.38846      8.45915         0.005503      0.050570      0.080697
O	      2.06934      2.19988      1.96377         0.024456     -0.012511      0.080344
O	      4.15373      4.27686      2.26282        -0.023462      0.049900     -0.070161
O	      4.10335      2.28621      4.31399         0.008617     -0.011992     -0.014771
O	      6.26746      4.36463      4.19210        -0.048668     -0.018692      0.029315
O	      6.13336      2.16063      6.36629        -0.012434      0.054491     -0.050943
O	      8.25517      4.36740      6.18245        -0.014257     -0.009372      0.015378
O	      2.15667      4.45192      4.27001         0.040817     -0.246339      0.007044
O	      4.10260      6.35926      4.37018         0.043137     -0.006894     -0.001721
O	      4.14452      4.30235      6.34025        -0.033742     -0.012336     -0.065978
O	      6.19964      6.47527      6.44476         0.005293     -0.047581     -0.085812
O	      6.15478      4.44124      8.50198        -0.023216     -0.125616     -0.052824
O	      8.23430      6.49851      8.42987         0.067771     -0.037382     -0.041655
O	      2.12777      6.56926      6.28830         0.015997     -0.007846      0.152406
O	      4.05228      8.45875      6.38945         0.055574      0.004086      0.012362
O	      4.14231      6.44522      8.48993        -0.062347      0.016821      0.012993
O	      6.19017      8.46899      8.45385         0.003174     -0.007410      0.014757
O	      6.11983      6.43167     10.52040        -0.082541      0.030066      0.015422
O	      8.21337      8.48906     10.61972         0.046745      0.098743      0.040976
