# total energy = -239.50496342 eV
 
CRYSTAL
PRIMVEC
0.049649 6.277717 6.475189 
6.234289 0.077914 6.446014 
4.162791 4.172659 0.045356 
PRIMCOORD
36 1
Li	      8.38466      8.48295     12.89666         0.041207      0.002237     -0.007731
Li	      8.40553     10.45853     10.83920         0.024483     -0.057362      0.008149
Li	      6.20845      2.15493      4.33091        -0.035271      0.044580      0.003308
Li	      8.30298      4.30446      8.59287        -0.032394      0.074869     -0.058132
Li	      4.20891      4.16260      4.34547         0.037729     -0.044822      0.010843
Li	      4.21523      2.09897      6.41864         0.009456     -0.027937     -0.081393
Li	     10.35142      8.46579     10.78612        -0.043077      0.027264     -0.022059
Li	      4.20316      6.28756      6.49190        -0.012052      0.017634      0.056503
Li	      6.27132      6.25509      8.66338        -0.007785     -0.100697      0.006322
Sc	      2.13612      2.12615      4.29620        -0.035424      0.019188      0.028858
Sc	      2.17577      4.16754      6.46556         0.058099      0.004372     -0.076424
Mn	      6.15379      0.09955      6.37472         0.112054     -0.043162      0.111378
Mn	      6.32551     10.44564      8.72644        -0.003514      0.020754     -0.000960
Cr	     10.37791      6.34713      8.63882         0.003959     -0.079520      0.069171
Cr	      6.25586      4.21820      6.46054         0.033096      0.033189      0.009927
Cr	      8.33447      6.39892     10.76429         0.027226     -0.058291      0.056547
Co	      4.22396      8.33462      8.71310         0.084974      0.051170     -0.018738
Co	      4.21651      4.24521      8.64114         0.018103      0.059793      0.041952
O	      2.00874      1.95558      2.17955         0.045227      0.011656      0.027377
O	      4.26949      4.21756      2.02416        -0.028154      0.060898     -0.050859
O	      4.14445      2.15533      4.20003        -0.034333      0.009388     -0.004734
O	      6.23003      4.23469      4.46404         0.020654     -0.049110      0.050625
O	      6.23258      2.12215      6.57356        -0.006255     -0.000319     -0.017368
O	      8.39770      4.24550      6.53933        -0.014221      0.012770      0.004134
O	      2.11608      4.23320      4.38040        -0.023207      0.052284      0.040859
O	      4.12955      6.28083      4.22264        -0.021869     -0.006220     -0.060119
O	      4.24842      4.23309      6.62702         0.029959     -0.007272      0.030304
O	      6.24762      6.27024      6.46970         0.013637     -0.044253     -0.032384
O	      6.17343      4.17963      8.50090         0.062424      0.042026     -0.002713
O	      8.37710      6.46009      8.75283        -0.065750     -0.047257     -0.039026
O	      1.97926      6.29084      6.36939         0.007526      0.079976     -0.032724
O	      4.22778      8.53989      6.61365        -0.093430      0.016019      0.025620
O	      4.08593      6.24935      8.60573         0.076531     -0.132538     -0.039218
O	      6.40187      8.50553      8.64003        -0.114803     -0.082201     -0.031694
O	      6.32301      6.35100     10.96660        -0.088854      0.040854      0.063625
O	      8.36764      8.35598     10.61310        -0.045950      0.100041     -0.069227
