# total energy = -239.94341495 eV
 
CRYSTAL
PRIMVEC
0.003672 6.289238 6.259071 
6.340268 -0.037345 6.299971 
4.209432 4.202677 -0.007503 
PRIMCOORD
36 1
Li	      4.21956      4.22505      0.07080         0.015489      0.012042      0.035960
Li	      6.29815      2.09834      4.23436         0.049474     -0.015257      0.023237
Li	      6.38333      2.12544      8.40451        -0.003803     -0.008722      0.046837
Li	      8.32870      4.11293      8.44901        -0.008579      0.002050     -0.019443
Li	      2.09438      2.26601      4.17034        -0.015586     -0.027020     -0.044022
Li	      4.16397      4.12360      4.19370        -0.015248      0.067595     -0.053835
Li	      0.12204      4.13658      4.08685        -0.048974      0.013319     -0.015519
Li	      2.12429      4.13369      6.16133        -0.031479      0.055725      0.002217
Li	      4.27463      4.10412      8.27469        -0.035897      0.017447      0.009876
Sc	      8.47486      4.18538      4.24897        -0.019992     -0.169461      0.029476
Sc	      2.10779      6.17826      4.08770         0.094782      0.047417      0.082947
Mn	      2.09107      2.09704      0.03395         0.026371     -0.000340     -0.056260
Mn	      6.28402      4.12489      2.16400         0.047912     -0.003035     -0.046763
Cr	      4.22507      2.13781      2.13583         0.008304      0.049815     -0.115588
Cr	      6.28696      4.16445      6.29034         0.053364     -0.103796     -0.081521
Cr	      6.35528      6.27080      8.34794        -0.011785      0.070764      0.011249
Fe	      4.24056      6.27875      6.12328        -0.007570     -0.020040      0.170514
Co	      4.23658      2.13103      6.29079         0.060946      0.018497     -0.033553
O	      2.17610      2.06931      1.95876         0.027774      0.053816      0.055397
O	      4.42396      4.08907      2.08921        -0.049908     -0.001049      0.059116
O	      4.23006      2.05265      4.26455        -0.025842      0.003152     -0.003951
O	      6.40100      4.17000      4.20360         0.003514      0.000963      0.024883
O	      6.21241      2.16253      6.34840         0.043452     -0.016098     -0.036870
O	      8.37570      4.22348      6.32002        -0.046073      0.038766     -0.033294
O	      2.11232      4.23609      4.14044         0.006522     -0.039516     -0.010269
O	      4.20284      6.30983      4.24916        -0.011106      0.002611     -0.238092
O	      4.29939      4.14799      6.27013        -0.029458      0.001556     -0.004151
O	      6.35912      6.21872      6.31997        -0.022084     -0.019596      0.038306
O	      6.28771      4.29373      8.26591        -0.009718     -0.018665      0.035168
O	      8.34029      6.31796      8.25383        -0.025704     -0.026061     -0.039785
O	      2.18571      6.32069      6.27251        -0.026599     -0.040264      0.060755
O	      4.19413      8.27801      6.39428        -0.019795      0.100583      0.057800
O	      4.16862      6.32595      8.34714         0.057603      0.000524      0.003361
O	      6.22793      8.31771      8.35427         0.016612     -0.096189      0.047455
O	      6.34697      6.25893     10.35619        -0.042749     -0.010503      0.006181
O	      8.43978      8.36108     10.68501        -0.004168      0.058968      0.032181
