# total energy = -237.60910883 eV
 
CRYSTAL
PRIMVEC
0.018735 6.154590 6.601821 
6.192563 0.002384 6.618585 
4.125217 4.111038 0.005676 
PRIMCOORD
36 1
Li	      2.12619      8.19736      6.57621        -0.019652      0.007829     -0.028176
Li	      4.17346      8.19110      8.80947         0.007635     -0.018480      0.012533
Li	      6.09953      2.10075      4.37252        -0.034734      0.011261      0.010743
Li	     10.27944      6.19827      8.88824        -0.018291      0.042788     -0.014809
Li	      4.17326      4.00222      4.45733         0.029114     -0.009828      0.056805
Li	      4.12334      2.11733      6.48629         0.038740      0.001097     -0.112501
Li	      4.16117      6.18653      6.67543         0.020665     -0.038567      0.078365
Li	      8.24733      8.18032      8.77257         0.055687     -0.012573     -0.056727
Li	      6.23907      6.20113      8.77369        -0.009204     -0.010481     -0.042153
Sc	     10.28039      4.18012      6.67918        -0.110289      0.180705     -0.000577
Sc	      4.17769      6.14457     10.89866         0.002647     -0.001698     -0.017605
Mn	      2.06905      4.09471      2.21047        -0.047604      0.010038     -0.083903
Mn	      6.13073      4.06143      6.65239         0.012724     -0.019172     -0.161527
Cr	      6.17841      6.16482      4.42413        -0.007199     -0.136547      0.019239
Cr	      2.12946      6.16970      4.38676        -0.088551     -0.025084      0.021601
Cr	      6.22761      8.16536      6.70129         0.166460     -0.044479     -0.018388
Fe	      2.10556      6.14377      8.78862        -0.118275      0.081931      0.050990
Cu	      4.12180      8.19265      4.47250        -0.032542      0.081420     -0.112960
O	      2.03739      2.09025      2.37206        -0.008813      0.040499      0.029390
O	      4.09529      4.15059      2.14279        -0.039585     -0.000726      0.009710
O	      4.04088      2.01458      4.40085        -0.048232      0.022355     -0.031581
O	      6.16270      4.14936      4.40508         0.031777      0.049621     -0.117219
O	      6.18296      2.16922      6.57372         0.014388     -0.081885     -0.043510
O	      8.16555      4.08481      6.53805         0.059804     -0.008858     -0.002727
O	      2.04114      4.10085      4.56892         0.115601      0.074255      0.140858
O	      4.12468      6.25279      4.40030         0.053775     -0.093291      0.048051
O	      4.23450      4.09538      6.62145        -0.154016      0.022136     -0.035888
O	      6.20663      6.10976      6.46566        -0.043615      0.058029      0.003743
O	      6.30035      4.12430      8.53046         0.023701     -0.007635      0.365354
O	      8.24631      6.00786      9.05119         0.012542     -0.013395      0.056018
O	      2.08329      6.11332      6.62388         0.016998     -0.012086     -0.050183
O	      4.25234      8.27444      6.70496        -0.014510     -0.076195     -0.065532
O	      4.02842      6.15633      8.87746         0.147257      0.016792      0.037961
O	      6.21773      8.29422      8.68065        -0.016737     -0.102536     -0.014206
O	      6.26700      6.12359     11.09260         0.087979      0.083009      0.045863
O	      8.34062      8.13921     10.98538        -0.085647     -0.070247      0.022949
