# total energy = -238.49531342 eV
 
CRYSTAL
PRIMVEC
0.019729 6.224920 6.355973 
6.343067 0.003677 6.372591 
4.222105 4.154362 0.008952 
PRIMCOORD
36 1
Li	      8.40105      8.28588     12.67483        -0.053777      0.034909      0.040254
Li	      4.22144      2.06436      2.16286        -0.000261     -0.015021      0.036167
Li	      8.33669      4.06488      4.38843        -0.045883     -0.012961      0.020487
Li	      6.39320      2.17481      4.29293        -0.006518     -0.060973     -0.005371
Li	      6.34176      2.11115      8.35676         0.006478      0.039910     -0.021072
Li	      6.40544      6.16413      4.28892         0.004228      0.034507     -0.010537
Li	      6.35481      4.09964      6.26940         0.016053      0.004482     -0.020384
Li	      2.10297      4.16655      6.34262         0.030019     -0.023926      0.007139
Li	      8.45925      8.29881      8.62447        -0.037669      0.025942      0.010699
Sc	      2.10590      3.99111      2.11721        -0.037440     -0.036106     -0.074729
Sc	      6.34033      6.38567      8.50237        -0.027823      0.004036      0.019959
Mn	      4.27414      4.11568      4.25060         0.096664      0.006048     -0.002102
Mn	      4.25442      6.24456      6.37844         0.035207     -0.019043     -0.027656
Cr	      6.38898      6.24710     12.69900        -0.067802     -0.000295      0.014908
Cr	      2.14318      6.22745      8.48233         0.013669      0.000997     -0.003175
Cr	      4.24726      2.09750      6.34801         0.016344      0.010651      0.045050
Fe	     10.42032      8.29439     10.63078         0.116263     -0.000267     -0.024728
Ni	      8.47147      6.25799     10.62523        -0.039631      0.023815     -0.008973
O	      2.11494      2.01098      2.11321         0.030260      0.009630     -0.007120
O	      4.28596      4.14259      2.17022        -0.022237     -0.001061      0.045144
O	      4.21495      2.23288      4.34653         0.021348      0.091036     -0.071026
O	      6.20414      4.17004      4.14453        -0.079958      0.004895      0.006617
O	      6.24002      1.99707      6.36455         0.006056     -0.001912     -0.009412
O	      8.55135      4.23190      6.38512         0.018805     -0.004953      0.037772
O	      2.29896      4.21358      4.20133         0.037807     -0.144792      0.005188
O	      4.21735      6.19558      4.42551         0.114005     -0.113767     -0.020032
O	      4.27711      4.14400      6.15286         0.000110      0.027643     -0.042851
O	      6.37893      6.20433      6.45011         0.080984      0.013815     -0.036321
O	      6.40336      4.17634      8.66615         0.029684     -0.020237     -0.100706
O	      8.43121      6.21202      8.42989        -0.001528      0.022590     -0.039256
O	      2.07790      6.23139      6.41507        -0.052956     -0.026971      0.059680
O	      4.27690      8.31679      6.21936         0.010265     -0.008841      0.154835
O	      4.18923      6.23323      8.29724         0.017093     -0.000084      0.005669
O	      6.36264      8.37158      8.50200        -0.009062     -0.008730     -0.009736
O	      6.39481      6.16626     10.68085        -0.081424      0.039018     -0.001100
O	      8.52095      8.28123     10.61626        -0.137372      0.106016      0.026718
