# total energy = -242.08887352 eV
 
CRYSTAL
PRIMVEC
0.027028 6.145160 6.238515 
6.625966 0.013847 6.251459 
4.417528 4.106503 0.008108 
PRIMCOORD
36 1
Li	      8.66707      2.10146      6.25424        -0.106251     -0.018461     -0.021777
Li	      4.38547      2.05080      2.19740         0.004865      0.004566     -0.028216
Li	      6.57951      2.11428      4.23690        -0.008148     -0.018191     -0.052626
Li	      6.68512      2.17551      8.27335         0.011899      0.001244     -0.004961
Li	      2.32384      2.02002      4.14068        -0.011271      0.021579      0.032910
Li	      4.36053      4.06791      4.15310        -0.021968      0.006971      0.001433
Li	      6.68246      4.02342      6.20291         0.022068      0.059415      0.022503
Li	      6.66544      4.06326     10.33713         0.059774      0.012388      0.009571
Li	      8.85675      8.21391      8.34648        -0.078793      0.005145      0.017143
Sc	     11.02077     10.24423     12.46306         0.045543      0.006842     -0.008974
Sc	      6.52505      4.16071      2.21148        -0.026542      0.016563     -0.058281
Mn	      4.47169      6.13758      6.24757         0.015614      0.030594     -0.013242
Mn	      6.67532      6.16702      8.36470        -0.042958     -0.033573      0.026817
Cr	      8.81691     10.23274     10.38584         0.039004     -0.107152     -0.003465
Cr	      2.22842      4.04849      2.13989         0.056032     -0.013185     -0.036692
Cr	      4.49050      2.10589      6.22367        -0.041537      0.076379      0.076706
Fe	      9.04211      6.30042     10.36029        -0.090596     -0.108193      0.011483
Fe	      2.23085      4.06465      6.17988         0.002271      0.048795     -0.013741
O	      2.14543      2.08211      2.07978         0.033579      0.038596     -0.023298
O	      4.38316      4.05104      2.05889        -0.036969      0.025446      0.000075
O	      4.39666      1.97049      4.27329         0.003344      0.034030     -0.013964
O	      6.80077      4.10141      4.16903        -0.055235     -0.008986      0.012787
O	      6.47192      2.03008      6.25350         0.025401      0.022220     -0.024626
O	      8.90105      4.16221      6.24885        -0.034792     -0.037799      0.022063
O	      2.23249      4.21460      4.14598         0.020816     -0.015131     -0.060757
O	      4.34082      6.15006      4.33310         0.173872     -0.006452      0.000602
O	      4.29125      4.14968      6.24436         0.078068      0.003650      0.034868
O	      6.77921      6.19485      6.36044         0.070461     -0.098999     -0.047822
O	      6.86508      4.25494      8.32000        -0.050912     -0.048686      0.027002
O	      8.92971      6.12537      8.35853        -0.013639      0.004673     -0.115514
O	      2.12610      6.11746      6.18657        -0.040658      0.020460      0.085045
O	      4.61137      8.08929      6.21596        -0.041689     -0.049079      0.001370
O	      4.33668      6.13137      8.28196         0.008292      0.000063      0.062170
O	      6.61843      8.14464      8.23101         0.012129     -0.026602      0.100918
O	      6.49688      6.15898     10.32499         0.028155     -0.035884      0.021787
O	      8.85069      8.18760     10.42105        -0.009229      0.186757     -0.039297
