# total energy = -240.21168896 eV
 
CRYSTAL
PRIMVEC
-0.001925 6.352800 6.434161 
6.181448 0.002287 6.429712 
4.113743 4.225197 0.008718 
PRIMCOORD
36 1
Li	     10.21074     10.52200     12.83641         0.041486      0.006458      0.015973
Li	      8.25579      2.25604      6.43341        -0.033484      0.062739     -0.015550
Li	      8.22835      4.23288      4.43160        -0.047432     -0.020304     -0.016235
Li	      8.15576      4.33910      8.44791         0.058443      0.050752     -0.054576
Li	      6.21882      6.28020      4.32661        -0.047540     -0.079262      0.004664
Li	      6.28982      4.25450      6.46416        -0.048782      0.005382     -0.049996
Li	      6.16761      8.46775      6.46649        -0.008028      0.004051      0.069837
Li	      8.30358      8.37905      8.61185        -0.001485      0.038314      0.029130
Li	      6.27679      6.23314      8.55352         0.043016     -0.071883     -0.011493
Sc	      6.25219      8.38218     10.78219         0.047581      0.007373     -0.004881
Sc	      4.18790      6.32935      6.46508        -0.042766     -0.056622      0.002009
Mn	      6.15076      4.22125      2.14684         0.035155     -0.012250     -0.024323
Mn	      6.18329      2.20757      8.45075         0.014514     -0.045769      0.005147
Mn	      4.05280      4.22821      4.30796         0.024317     -0.044257      0.000611
Cr	      4.06109      2.13110      2.12231        -0.051020     -0.050659      0.032769
Cr	      8.17919      6.27297      6.40996         0.019854      0.039461     -0.060554
Cr	      6.20027      4.28506     10.72437        -0.026280      0.042900      0.020237
Cu	      8.23500      6.36286     10.73420        -0.030390      0.065283      0.093548
O	      8.22538      4.32923      6.42474         0.012992     -0.027969     -0.026410
O	      1.99798      1.96450      2.16978         0.035304     -0.035904     -0.009606
O	      4.16669      4.20637      2.27832        -0.036504     -0.012900      0.005384
O	      4.10429      2.06568      4.20930         0.011919     -0.000664      0.027496
O	      6.03928      4.18349      4.14555        -0.026647     -0.018987      0.074082
O	      6.12178      2.10747      6.37016         0.013157      0.026470     -0.054969
O	      2.09175      4.37080      4.27063         0.002964     -0.059785      0.035228
O	      4.06571      6.46507      4.34562         0.157869      0.050983      0.010121
O	      4.11594      4.18453      6.23653        -0.021866      0.010997      0.016834
O	      6.19826      6.31740      6.50100        -0.029500      0.028284     -0.058732
O	      6.19888      4.14547      8.74996         0.035247      0.081981     -0.015611
O	      8.39804      6.39901      8.36268         0.006116      0.005616      0.050460
O	      2.06035      6.32370      6.71598        -0.005272     -0.018162     -0.073413
O	      4.11054      8.43256      6.49395        -0.018623     -0.007672     -0.067579
O	      3.96378      6.46333      8.57723         0.000801     -0.014953      0.013982
O	      6.07130      8.62067      8.63412        -0.013111      0.009622     -0.001875
O	      6.26633      6.29634     10.64923        -0.103564     -0.049751      0.034753
O	      8.30339      8.40132     10.73301         0.031561      0.091084      0.003538
