# total energy = -239.26158761 eV
 
CRYSTAL
PRIMVEC
0.016254 6.513391 6.357311 
6.166153 0.009812 6.364143 
4.114366 4.350451 0.002807 
PRIMCOORD
36 1
Li	      4.09170      2.22616      2.06943         0.033292      0.027838     -0.060628
Li	      8.10455      4.49570      4.27068         0.056593      0.025397     -0.008275
Li	      6.13063      2.30832      4.25103        -0.020021      0.047236     -0.054828
Li	      4.14231      6.47453      2.12458        -0.002455      0.012636      0.050323
Li	      6.18420      6.33591      4.32307        -0.062303     -0.019623      0.024242
Li	      4.16172      4.37285      4.32838        -0.020577     -0.006412      0.004281
Li	      6.15385      4.41025      6.18351        -0.006357      0.034124      0.000552
Li	      6.23135      8.63192      6.45036        -0.028934     -0.003332     -0.009391
Li	      4.15091      6.46230      6.34131         0.024831     -0.003878     -0.002843
Sc	      6.11546      4.35598      2.23265         0.004413     -0.000259      0.064402
Sc	      4.17142      8.61530      4.29798         0.052843     -0.004852     -0.033430
Mn	      2.09628      4.26387      2.10584        -0.013018      0.020593      0.104449
Mn	      2.11534      6.49405      4.26792         0.009521     -0.025725     -0.052322
Mn	      6.15359      6.60086      8.44173        -0.005649     -0.021077      0.033123
Cr	      8.15819      2.19693      6.37816         0.012164     -0.018189     -0.061453
Cr	      4.16565      2.25472      6.25443        -0.104313      0.043767     -0.095519
Cr	      4.14740      4.35806      8.41619         0.045166     -0.050620      0.075355
Ni	     10.25778      4.36119      6.36914         0.014401      0.010455     -0.121617
O	      2.04751      2.11987      1.99401        -0.027319     -0.017860      0.001373
O	      4.01407      4.32026      2.08650        -0.017425      0.043760      0.154797
O	      4.07517      2.16703      4.47826         0.002381      0.016054      0.132286
O	      6.16453      4.38489      4.19226         0.036454     -0.028447     -0.002651
O	      6.08191      2.08236      6.36987        -0.037161     -0.022834      0.033668
O	      8.20966      4.30676      6.48303        -0.036926      0.016159     -0.034255
O	      2.10708      4.49246      4.08820         0.041923      0.003135     -0.016714
O	      4.02621      6.56518      4.28520         0.027283     -0.026661     -0.005509
O	      4.16307      4.19776      6.45133         0.020899     -0.028003     -0.051656
O	      6.31514      6.56332      6.50585         0.032531     -0.043568     -0.066705
O	      6.24210      4.34178      8.53415        -0.014493     -0.059427     -0.022065
O	      8.15714      6.66321      8.37114         0.057800     -0.020514     -0.066186
O	      2.02503      6.68484      6.36739         0.041192      0.002229      0.033843
O	      4.02442      8.78674      6.31986        -0.004803      0.008620      0.092464
O	      4.21274      6.37104      8.45313        -0.041295     -0.009740     -0.004832
O	      6.27273      8.76233      8.46483        -0.059419      0.063308      0.006630
O	      6.30138      6.46799     10.46726         0.026117      0.008285     -0.067684
O	      8.24068      8.55518     10.58898        -0.037337      0.027425      0.026777
