# total energy = -102.68162416 eV
 
CRYSTAL
PRIMVEC
4.101241 0.000080 0.000155 
2.050898 4.166031 -6.449275 
2.050710 4.107046 2.111347 
PRIMCOORD
16 1
Li	      4.09969      0.26439     -0.16871         0.000166      0.000382     -0.012161
Li	      2.04844      2.09555      0.05084         0.002348     -0.001100     -0.017753
Li	      4.10082      2.08382     -1.94732        -0.002323     -0.023676      0.033486
Li	      4.10083      6.13948     -2.24039         0.000046      0.008302      0.014338
Ti	      2.05304      4.02613     -2.05520        -0.002278     -0.351210      0.254108
Ti	      4.10228      4.06309     -4.49796        -0.001692      0.179942     -0.272507
Ni	      4.10004      4.14332      0.05229         0.002391      0.122509      0.041295
Ni	      6.15032      6.18718     -4.40894         0.001898      0.018897      0.012022
O	      4.09880      4.11830     -2.21869        -0.001040      0.007505     -0.084618
O	      6.15059      6.18660     -2.28319        -0.001559      0.019846      0.081878
O	      4.09958      2.16660      0.05952         0.002259     -0.155288     -0.168625
O	      6.15067      4.22617     -0.17108        -0.001900      0.002723     -0.240275
O	      2.04929      2.19568     -2.11949         0.002646      0.408687     -0.015524
O	      2.04860      4.07337     -4.20304         0.000644     -0.092400      0.002066
O	      4.09964      5.94175     -4.31300        -0.001209     -0.229957      0.002597
O	      4.09994      4.12635     -6.36639        -0.000397      0.084838      0.369673
