# total energy = -220.41122308 eV
 
CRYSTAL
PRIMVEC
-0.001203 6.301850 6.318924 
6.185331 0.039511 6.277943 
4.137992 4.188415 0.011986 
PRIMCOORD
36 1
Li	      6.08582      4.17248      2.07624        -0.051417     -0.065362      0.007476
Li	      4.10868      2.22046      2.11812         0.001807     -0.037608     -0.010035
Li	      6.18636      8.43091     10.43491        -0.027573     -0.003945      0.009102
Li	      4.20447      6.22875      2.24739        -0.026504     -0.000669      0.003565
Li	      4.18001      4.28367      4.20814        -0.057684     -0.030935      0.071168
Li	      6.10001      4.33556      6.23346         0.034902     -0.061982     -0.086644
Li	      2.09793      6.32875      4.28396         0.005649     -0.021137      0.043504
Li	      2.09915      4.30473      6.26496         0.074134     -0.020536      0.040838
Li	      4.10381      6.18124      6.25362        -0.008900      0.034562      0.062514
Sc	      8.14848      4.17574      4.13986        -0.115763      0.036431     -0.103644
Sc	      4.23239      2.23311      6.25826        -0.014386      0.210873     -0.071335
Ti	      6.17756      6.43452      8.33067        -0.222673      0.326342     -0.179785
Co	     10.31030     10.51294     12.59487         0.079024      0.055357      0.042030
Co	      2.02756      2.05014      0.04694         0.084439     -0.254940      0.039175
Co	      2.09512      4.16441      2.14223         0.010240      0.013666      0.160129
Co	      6.16365      6.30394      4.19204        -0.153382     -0.031020      0.118008
Cu	      4.17122      8.34002      4.25894        -0.008234     -0.061386      0.081871
Ni	      4.16623      4.19266      8.38786         0.042600     -0.025755     -0.011540
O	      2.07020      2.24416      2.23957         0.094270      0.170084     -0.172568
O	      3.96009      4.19423      1.90270         0.135117     -0.005793     -0.023630
O	      4.02306      2.07273      4.22393         0.017348      0.070249     -0.033247
O	      6.14522      4.32080      4.14991         0.095312      0.106078     -0.024395
O	      6.30801      1.99401      6.25169         0.059924      0.010973     -0.017751
O	      8.31571      4.11370      6.25237         0.048163     -0.025620      0.059920
O	      2.01405      4.03685      4.25928         0.135276      0.032772     -0.024082
O	      4.26749      6.36505      4.25128         0.113693     -0.142268      0.039703
O	      4.17885      4.19275      6.39498        -0.024128     -0.171271     -0.230341
O	      6.25897      6.29926      6.39816         0.010647      0.017782      0.204234
O	      6.33520      4.30896      8.50628        -0.049920      0.008421     -0.088333
O	      8.20523      6.23638      8.38850        -0.065106     -0.206149      0.002823
O	      1.91114      6.43453      6.38023        -0.016565      0.101550     -0.072578
O	      3.95914      8.52973      6.26906        -0.102993      0.060616      0.055823
O	      4.27046      6.24951      8.38915         0.187686      0.195517      0.007146
O	      6.22739      8.28982      8.44376        -0.081252     -0.379043     -0.078812
O	      6.19256      6.26938     10.49056        -0.033037      0.135073     -0.017463
O	      8.33414      8.39185     10.43866        -0.170712     -0.040925      0.197154
