# total energy = -219.79737495 eV
 
CRYSTAL
PRIMVEC
-0.019237 6.313213 6.230862 
6.250992 0.005340 6.206474 
4.177014 4.201968 -0.005984 
PRIMCOORD
36 1
Li	      2.14517      8.31979      6.31642         0.049113     -0.087948      0.076124
Li	      2.11729      6.38845      8.24499         0.081397      0.061872      0.017295
Li	      0.08036      2.17793      2.14843         0.040926      0.042347     -0.029772
Li	      6.12878      6.30264      4.19225        -0.007811      0.022029     -0.030432
Li	      4.14289      4.34384      4.14678        -0.097843      0.060704      0.020936
Li	      6.23692      4.25376      6.24861         0.087336      0.011639     -0.021097
Li	      0.09239      4.09271      4.12985         0.090152     -0.006653     -0.035189
Li	      6.27558      8.33949      6.21189        -0.053255      0.001773     -0.059710
Li	      4.14818      6.40431      6.14683        -0.044436      0.095771     -0.039367
Sc	      4.18605     10.41380      6.30057        -0.031084     -0.088669     -0.134728
Sc	      2.23187      6.31468      4.15302        -0.066626     -0.342710     -0.052933
Ti	      6.24202      2.29658      4.12357         0.064058      0.341161     -0.083492
Co	      4.11091      2.06566      2.06654        -0.167045      0.044296      0.181688
Co	      4.17075      0.02492      4.14239         0.006203     -0.087967      0.061645
Co	      1.98949      4.05618      2.19659         0.306284      0.041411     -0.723331
Co	      8.27260      6.35788      6.19216        -0.190656     -0.111710      0.051623
Ni	      6.20983      6.27939      8.23208         0.139611      0.081244      0.074175
Ni	      4.22602      4.25296      8.18847        -0.280485     -0.048956      0.127488
O	      2.19949      2.14768      2.05029        -0.034974     -0.021434     -0.064794
O	      4.07319      4.00719      2.10776        -0.653516     -0.106849      0.328617
O	      4.22674      1.95907      4.15370         0.078496     -0.057377      0.099067
O	      6.37708      4.14848      4.12305         0.036984     -0.367512      0.046365
O	      6.09023      2.07472      6.07975        -0.058979     -0.027785      0.010695
O	      8.32859      4.38170      6.12722         0.007991      0.128310      0.002825
O	      2.06319      4.27428      4.03282        -0.091008      0.197960      0.255303
O	      4.15454      6.31328      4.14173         0.018726      0.053722      0.063433
O	      4.16483      3.99701      6.22277         0.065335     -0.085265     -0.083628
O	      6.44850      6.31774      6.22154         0.183343      0.018826     -0.148488
O	      6.26910      4.23666      8.27027         0.701318     -0.141902      0.170208
O	      8.30813      6.33986      8.12272         0.056458     -0.047505     -0.151192
O	      2.03292      6.32686      6.16407        -0.117360     -0.024192      0.056893
O	      4.14977      8.36931      6.40549         0.061089      0.186875     -0.177163
O	      4.16574      6.37547      8.45095        -0.070971      0.055121     -0.020537
O	      6.10667      8.38317      8.42000         0.120311      0.058966      0.084179
O	      6.14529      6.38430     10.36001        -0.141631      0.079775      0.137104
O	      8.20530      8.53060     10.31229        -0.087450      0.070632     -0.009810
