# total energy = -215.62523571 eV
 
CRYSTAL
PRIMVEC
-0.000969 6.168997 6.225504 
6.348221 -0.029419 6.253574 
4.225641 4.125083 -0.013428 
PRIMCOORD
36 1
Li	      2.18211      6.15964      8.28843         0.084089     -0.001465      0.016108
Li	      4.24864      8.13310      8.26835         0.026882     -0.024727     -0.016646
Li	      4.19601      6.14801     10.34332         0.033348      0.009438     -0.054495
Li	      4.17267      4.16103      4.22367         0.059675     -0.043813      0.002732
Li	      4.17433      2.15499      6.29866        -0.060591      0.148816     -0.005313
Li	      6.26645      4.12819      6.30791        -0.028834      0.011691     -0.015381
Li	      6.33883      4.06099     10.35981        -0.115191      0.046920      0.083689
Li	      2.28312      4.06230      6.34736         0.108036     -0.026900      0.077305
Li	      4.18883      4.14760      8.19877        -0.071802      0.028308     -0.056179
Sc	      4.22088     10.17984      6.18663        -0.112523     -0.169264     -0.105912
Sc	      6.27870      2.17241      4.11463        -0.119178     -0.112824     -0.157487
Ti	      6.44974      6.14813      4.25050         0.254695     -0.136960      0.364977
Fe	      6.34563      2.07398      8.36851        -0.055658      0.004987     -0.168783
Co	      2.11012      8.22278      6.22096         0.094677     -0.006316      0.027463
Cu	      2.10737      4.12071      2.07989         0.201154     -0.252427     -0.140870
Cu	      4.23999      6.11223      6.23474        -0.092004     -0.003821      0.170222
Cu	      6.28325      6.14628      8.35623        -0.013119     -0.079758     -0.331127
Cu	      2.15284      6.13771      4.16091        -0.044386      0.114771      0.008478
O	      4.24291      4.17182      6.22372         0.002173     -0.046889     -0.031032
O	      4.33525      6.12405      8.21100        -0.277084     -0.097798     -0.037201
O	      2.05445      2.10577      2.02705        -0.012779     -0.265901     -0.080018
O	      4.17975      4.22125      2.02385        -0.060281      0.074080     -0.022359
O	      4.12542      2.06044      4.20046        -0.176608     -0.002914      0.022421
O	      6.38336      4.22559      4.06800         0.076097      0.163798      0.037704
O	      6.45439      2.01791      6.28215         0.003254     -0.021738      0.073251
O	      8.49120      3.95185      6.31782        -0.041510     -0.023855     -0.027213
O	      2.12655      4.03811      4.07894         0.017375      0.162207      0.101901
O	      4.40326      6.18307      4.07852         0.076888      0.069514     -0.097452
O	      6.27773      6.17750      6.15924         0.269861      0.061462     -0.641540
O	      6.43807      4.09914      8.31899         0.012006      0.109943      0.038971
O	      8.47995      6.08614      8.42086         0.083290      0.331591     -0.157310
O	      2.18097      6.25911      6.15457        -0.330185     -0.063599      0.130110
O	      4.04638      8.16077      6.20569        -0.053854      0.016324      0.017564
O	      6.31982      8.12441      8.32469         0.128552      0.226287      0.002068
O	      6.23211      6.18841     10.34549         0.042896     -0.050268      0.914482
O	      8.38675      8.15337     10.56238         0.090640     -0.148896      0.056872
