# total energy = -91.00152605 eV
 
CRYSTAL
PRIMVEC
0.003108 2.092026 2.097186 
6.176257 6.391141 -4.302063 
-4.095236 2.120123 -2.132329 
PRIMCOORD
16 1
Li	      0.10708      6.49103     -2.30684        -0.015718      0.016000     -0.017389
Li	      1.97485      6.22733     -4.16088        -0.001406      0.015179     -0.011238
Li	      4.04329      8.35928     -4.17207        -0.022052     -0.003613      0.011400
Li	      4.07578      6.32529     -2.16981         0.021863      0.001458     -0.014716
Mn	      6.10317      8.44210     -2.20301        -0.070613     -0.030621      0.012997
Mn	     -1.95976      4.29360     -2.16109         0.042648      0.000077      0.006220
Ni	     -0.01665      4.23830     -0.02975        -0.023130     -0.070739      0.066118
Ni	      2.12205      4.33198     -2.27691        -0.050512     -0.058150      0.090406
O	      4.30562      6.43346     -4.35378         0.113474     -0.002584     -0.000564
O	     -0.04623      6.37836     -4.29218         0.095268     -0.009484      0.004720
O	      2.11663      8.65854     -4.52738        -0.020697      0.041581     -0.059247
O	     -2.08132      4.26257     -0.21656        -0.135353     -0.002105     -0.030803
O	     -0.01084      4.15276     -2.03585        -0.023906      0.115592     -0.099986
O	      2.04396      6.28330     -2.15659        -0.006340      0.101033     -0.105283
O	      0.07542      2.04716      0.03782        -0.020378     -0.087375      0.109587
O	      2.02976      4.27942      0.12350         0.116853     -0.026247      0.037779
