# total energy = -238.70459670 eV
 
CRYSTAL
PRIMVEC
-0.053060 6.495673 6.327903 
6.402539 -0.044973 6.320380 
4.244771 4.302048 -0.006839 
PRIMCOORD
36 1
Li	      8.39236      2.12988      6.23869        -0.027501      0.048032      0.029382
Li	      6.48927      8.45074     10.67212        -0.048677      0.018707      0.046855
Li	      8.50255      6.45780      6.41663         0.009571      0.000032      0.025877
Li	      6.36062      4.25822      6.39777        -0.031625      0.028469     -0.003973
Li	      6.26212      4.38633     10.40860        -0.021198      0.009643      0.004432
Li	      8.29203      6.64840     10.42661        -0.012838      0.013098     -0.000663
Li	      2.15880      4.25742      6.27600         0.034056     -0.014794     -0.033210
Li	      8.53457      8.43158      8.58317        -0.031508      0.019902     -0.021344
Li	      6.57354      6.29595      8.48413         0.002944     -0.092719     -0.030692
Sc	      8.56358     10.61843     10.67723        -0.042085      0.017315      0.072758
Sc	      4.25262      6.45488      6.20645         0.020272     -0.012375     -0.022898
Ti	      2.07116      6.44125      8.37592         0.131343     -0.062377     -0.112816
Ti	      4.24560      8.61392      8.38154         0.157208     -0.156774     -0.137312
Mn	      4.25842      4.26267      4.24895        -0.028153      0.055407      0.037421
Fe	      6.23229      2.35791      8.34736         0.010081     -0.227772      0.132736
Fe	      2.14952      2.20083      4.28152        -0.034586     -0.030936     -0.142165
Co	      8.45137      4.38998      8.35626        -0.457708      0.028508      0.097196
Ni	      6.40111      0.01819      6.26941        -0.019324     -0.050592     -0.011501
O	      2.18795      2.01495      2.16550         0.022307     -0.088888     -0.023859
O	      4.33926      4.19270      2.18840         0.065317     -0.025653      0.038535
O	      4.16821      2.05088      4.06531         0.044211      0.029597     -0.052262
O	      6.30486      4.38008      4.10036        -0.018913      0.006794     -0.055051
O	      6.39826      2.03700      6.46882         0.010962      0.086460     -0.103578
O	      8.58188      4.24613      6.36877        -0.044260     -0.070913     -0.012069
O	      2.30948      4.18012      4.10256         0.139628      0.009938     -0.040310
O	      4.34798      6.51055      4.13480        -0.024221      0.008212     -0.055111
O	      4.20356      4.39301      6.13402         0.019288     -0.010553      0.042950
O	      6.28433      6.49160      6.21261        -0.020458      0.017954      0.148263
O	      6.34085      4.23988      8.39917         0.287998      0.325228      0.011658
O	      8.54859      6.42932      8.44673         0.050594      0.058077      0.017371
O	      2.07391      6.48337      6.50198         0.101544     -0.021897      0.154941
O	      4.21094      8.61573      6.51496        -0.010166     -0.036642      0.190687
O	      4.06475      6.60325      8.40771        -0.099944      0.061344     -0.015542
O	      6.16136      8.81448      8.47253        -0.130569      0.112234     -0.035223
O	      6.32297      6.43155     10.57534         0.014735      0.001692     -0.154528
O	      8.44323      8.66819     10.53736        -0.018326     -0.053759      0.013045
