# total energy = -242.15943068 eV
 
CRYSTAL
PRIMVEC
0.009977 6.483975 6.383790 
6.474348 0.024830 6.369296 
4.312492 4.308839 0.019949 
PRIMCOORD
36 1
Li	      4.32054      4.28047      0.10238         0.022825     -0.007377     -0.022054
Li	      2.11120      2.20201      0.16032        -0.012828     -0.059161     -0.012652
Li	      6.30611      4.51138      2.22615        -0.039031      0.026565      0.006697
Li	      4.17327      2.27147      2.19511         0.031573     -0.037271     -0.067473
Li	      8.53573      4.43911      4.29580        -0.017948      0.021645     -0.025166
Li	      0.13570      2.03405      2.10104        -0.016841      0.002935      0.006047
Li	      2.31429      2.02538      4.11833         0.063263     -0.043116      0.057977
Li	      4.35810      4.29931      4.09436         0.048571     -0.006097      0.056608
Li	      4.32739      8.65381      4.32411        -0.027118     -0.010803      0.045627
Sc	      6.35513      2.20940      4.26535         0.002869      0.005933      0.128867
Sc	      4.31477      6.54815      6.33621        -0.059435      0.104230     -0.055341
Ti	      2.18813      6.39364      4.22835         0.192480     -0.021176      0.232936
Ti	      4.39800      4.39241      8.56009        -0.000535      0.247493      0.143375
Mn	      6.47020      6.47733      8.56126        -0.085983      0.016533     -0.023360
Fe	      2.37018      4.10501      2.13429        -0.093975      0.071696      0.031973
Fe	      6.57390      4.25729      6.32778        -0.129191      0.075669     -0.004439
Fe	      6.39034      8.65758      6.42233         0.148485     -0.037438     -0.071581
Co	      4.32720      2.16697      6.31351        -0.054830     -0.049533      0.162770
O	      2.15939      2.23046      2.14562        -0.022444     -0.015411      0.007410
O	      4.23588      4.30883      2.12266         0.076111      0.030764      0.009317
O	      4.36631      2.12318      4.25906        -0.002287      0.022210      0.307032
O	      6.46320      4.29854      4.38808         0.021708     -0.049897     -0.072619
O	      6.47685      2.29517      6.33747         0.049112     -0.035089     -0.053649
O	      8.52906      4.39664      6.51642         0.089282      0.372365     -0.131977
O	      2.12555      4.47151      4.21579        -0.031523      0.192097      0.003624
O	      4.10364      6.50512      4.31159        -0.259941     -0.012014     -0.007461
O	      4.28256      4.32965      6.49812         0.024226     -0.227249     -0.059750
O	      6.44918      6.55663      6.35425        -0.027557     -0.074447     -0.014554
O	      6.33529      4.33460      8.39146        -0.136865     -0.011415      0.039777
O	      8.64479      6.56515      8.58792         0.023215     -0.008499     -0.195274
O	      2.21095      6.37933      6.24447         0.023056     -0.019484     -0.158149
O	      4.47097      8.57017      6.42742        -0.079978     -0.039416     -0.032593
O	      4.30687      6.29300      8.48844         0.045137     -0.304937     -0.028526
O	      6.64481      8.65444      8.45230         0.106464     -0.038063      0.060589
O	      6.65778      6.57085     10.67046         0.116543     -0.033428      0.001395
O	      8.61274      8.53756     10.48708         0.013389     -0.048815     -0.265405
