# total energy = -235.44643292 eV
 
CRYSTAL
PRIMVEC
0.000596 6.278092 6.403405 
6.279009 0.013463 6.390514 
4.220511 4.211290 -0.025260 
PRIMCOORD
36 1
Li	      6.27038      6.29036     12.69472         0.007195     -0.003677     -0.046917
Li	      4.26469      2.17217      2.27773        -0.007688      0.023969     -0.054787
Li	      4.21443      0.15048      4.27396        -0.011096     -0.025406     -0.020979
Li	      6.03867      2.12104      4.23794        -0.020344     -0.013591     -0.000937
Li	      8.37903      4.24677      8.44825        -0.006372      0.008198     -0.017127
Li	      4.29685      4.04108      4.19463        -0.009834      0.114780     -0.051516
Li	      8.37472      6.22052      6.27563        -0.003089      0.029300      0.003391
Li	      8.27135      6.23034     10.64532         0.023934     -0.023618      0.014635
Li	      6.31129      6.28343      8.58556         0.001446      0.002229      0.056658
Sc	      8.34957      2.21531      6.32587         0.078187     -0.076110     -0.027065
Sc	      4.25478      6.24872      6.38797        -0.012268      0.064924      0.003855
Ti	      4.15869      6.17112      2.06639        -0.112263     -0.306426     -0.062774
Ti	      8.31883      8.40803      8.60386        -0.156275      0.041557      0.116874
Mn	      2.20424      2.07627      4.22777         0.008752      0.056799     -0.014957
Mn	      6.33590      4.28375     10.63811         0.001017     -0.001880      0.024521
Cu	      6.34348      4.24342      6.34634        -0.110813     -0.062343      0.034422
Ni	      6.30125      4.21994      2.11857        -0.009301     -0.001103     -0.043559
Ni	      2.11175      4.18828      6.40721         0.003327     -0.003677      0.035184
O	      1.96935      2.10091      2.02274        -0.073187      0.117333     -0.040264
O	      4.18847      4.33488      2.11728        -0.045347      0.319943     -0.051003
O	      4.08989      2.13052      4.20662         0.020656      0.014740      0.052243
O	      6.29895      4.35067      4.13250         0.026716     -0.070796      0.108263
O	      6.27954      2.16939      6.51968        -0.054062     -0.086094      0.130984
O	      8.29478      4.20431      6.38969         0.116094      0.084166     -0.043511
O	      1.98874      4.12196      4.32650         0.040390      0.007253     -0.043093
O	      4.35790      6.40145      4.18623        -0.034512      0.004689     -0.047706
O	      4.27524      4.19324      6.57097        -0.029525     -0.048379      0.094593
O	      6.30504      6.31715      6.43727         0.051990     -0.055276      0.002172
O	      6.22186      4.14290      8.74078         0.021774      0.002668     -0.160008
O	      8.53855      6.43041      8.56216         0.113041      0.016453      0.005711
O	      2.15443      6.27623      6.41964         0.018891      0.086925     -0.068014
O	      4.21629      8.38291      6.22248        -0.088636     -0.054348      0.183644
O	      4.18453      6.14507      8.47121         0.107336     -0.104571     -0.005938
O	      6.42213      8.39426      8.51966         0.207489     -0.064872      0.020385
O	      6.31324      6.12066     10.64834        -0.015205      0.003644      0.014833
O	      8.54980      8.38835     10.57313        -0.048421      0.002593     -0.102215
