# total energy = -241.43831119 eV
 
CRYSTAL
PRIMVEC
0.004245 6.310111 6.284624 
6.520863 0.024605 6.263610 
4.365870 4.210879 -0.001681 
PRIMCOORD
36 1
Li	      8.76745      8.44503     12.45229         0.070050     -0.018071      0.025518
Li	      2.14349      0.22030      2.08223         0.088488      0.028387      0.062679
Li	      8.77473     10.42590     10.48161         0.022191      0.009629      0.015033
Li	      6.60375      8.39451     10.45086        -0.039162     -0.006698     -0.035135
Li	      0.23956      2.09585      2.13464        -0.013208      0.088119     -0.027248
Li	      2.08667      2.17725      4.12835         0.034258      0.004547      0.053577
Li	      4.24289      8.34059      4.28172        -0.063708      0.015629      0.011686
Li	      2.28218      6.34006      4.25546        -0.008392     -0.002652      0.013986
Li	      6.44857      8.41994      6.20892        -0.025716     -0.042207      0.005103
Sc	      4.33327      2.07960      6.13226        -0.073990     -0.025417     -0.031167
Sc	      8.63275      8.41646      8.51989        -0.107504     -0.060926      0.034962
Ti	      0.26172      6.23232      6.23803         0.172033     -0.161576     -0.303047
Ti	      6.55143      4.15944      6.12054         0.063971      0.104365     -0.359337
Mn	      2.14393      4.16338      2.16789         0.002586     -0.024345     -0.027595
Mn	      6.45711      6.31328      8.42546        -0.000447      0.115815      0.042865
Fe	      4.31594      4.30493      4.05958         0.123138     -0.084910      0.112968
Co	      4.32165      2.13478      2.13682         0.065346     -0.157408     -0.037403
Cu	      4.33633      6.38566      6.22391        -0.032978      0.096425      0.032618
O	      2.23591      2.26026      2.10961        -0.036589      0.076615      0.041177
O	      4.40045      4.31536      2.04536        -0.019806      0.026422     -0.110725
O	      4.39891      2.22626      4.14788         0.015439      0.024087      0.044398
O	      6.48252      4.18713      4.27626        -0.059530      0.001378      0.337881
O	      6.44036      2.16911      6.33896         0.025179      0.006453     -0.031623
O	      8.56343      4.21315      6.37148        -0.087270     -0.004952      0.009550
O	      2.33400      4.22447      4.07992        -0.069310      0.016133      0.006895
O	      4.36248      6.24416      4.30432         0.029455      0.122086     -0.121245
O	      4.50792      4.16687      6.24131         0.042554     -0.127778     -0.011376
O	      6.60718      6.14048      6.20306         0.133969     -0.155900      0.016884
O	      6.42891      4.33280      8.29809        -0.040573     -0.079828     -0.036829
O	      8.47811      6.24983      8.34108         0.036276     -0.008079      0.017714
O	      2.06696      6.31249      6.31603        -0.360549     -0.009085      0.003248
O	      4.40885      8.54046      6.33725         0.024361      0.325698     -0.041310
O	      4.44521      6.30045      8.22570        -0.008746      0.079613      0.098184
O	      6.53955      8.22525      8.34415         0.080583     -0.053996      0.014143
O	      6.45878      6.36079     10.68125         0.037596     -0.066383      0.226752
O	      8.71430      8.45760     10.43405        -0.019993     -0.051192     -0.053783
