# total energy = -241.60315647 eV
 
CRYSTAL
PRIMVEC
0.029454 6.403497 6.251385 
6.449602 0.010888 6.269958 
4.302063 4.283662 0.005085 
PRIMCOORD
36 1
Li	      4.36713      6.36258     10.40862         0.019971     -0.000784     -0.061448
Li	     10.68760      6.53756      8.43391         0.027787     -0.034200      0.007550
Li	      8.54342      4.30898      8.35760        -0.003439     -0.000661      0.049724
Li	      1.98929      2.36386      4.20117         0.027159     -0.017550     -0.051672
Li	      4.21311      4.28809      4.22032         0.009601     -0.033171     -0.067348
Li	      8.56233      6.45565      6.46561         0.000991     -0.006039     -0.056968
Li	      0.17122      4.13645      4.04907        -0.018547      0.047030     -0.016825
Li	      8.68833      8.38666      8.32832         0.022487      0.040954      0.042105
Li	      6.59172      6.36671      8.33246        -0.037507     -0.079929      0.011775
Sc	      2.17727      0.08208      2.16644        -0.000129      0.043299      0.125674
Sc	      2.27762      6.31291      4.05365         0.089961     -0.156071     -0.051061
Ti	      6.41123      8.51166     10.40618        -0.294403      0.032424     -0.170907
Ti	      6.32007      4.42906      6.36118        -0.115025      0.127795      0.302933
Mn	      8.53888      2.16826      6.25079         0.117551      0.018132      0.161376
Mn	      4.33088      8.55512      8.33412        -0.018130      0.059195      0.062093
Fe	     10.58267      4.30644      6.28099         0.077151     -0.072954      0.075169
Co	      2.27425      4.21617      6.27881         0.267570     -0.189390     -0.090707
Ni	      4.38345      6.44721      6.20864        -0.032764      0.013056     -0.005766
O	      2.09724      2.12081      1.94068        -0.032701      0.022974     -0.016130
O	      4.35861      4.12971      1.98114        -0.008624      0.041296      0.051922
O	      4.47270      2.12808      4.01897         0.240168      0.005348      0.054664
O	      6.47982      4.10545      4.24174        -0.020587     -0.106100      0.044261
O	      6.34610      2.12925      6.15072        -0.045454     -0.008536      0.019394
O	      8.58954      4.13830      6.24090        -0.093543      0.049973     -0.010271
O	      2.18377      4.28115      4.32994        -0.046521      0.155691     -0.462540
O	      4.29887      6.44276      4.20779        -0.006090     -0.005714     -0.097188
O	      4.40445      4.33802      6.27751         0.417827     -0.037407      0.066071
O	      6.48339      6.29285      6.23442         0.031065     -0.255445      0.036971
O	      6.45671      4.28429      8.17505        -0.075649     -0.026183     -0.365104
O	      8.62598      6.37300      8.38582         0.000464      0.055303     -0.055804
O	      2.13723      6.54069      6.28612        -0.114848      0.065178      0.024384
O	      4.44753      8.62376      6.34603        -0.332509      0.077485      0.096459
O	      4.28350      6.62125      8.26632         0.003714     -0.012527      0.146496
O	      6.60500      8.60182      8.40743        -0.025364      0.099526      0.366035
O	      6.49442      6.53726     10.54917        -0.000861      0.078732     -0.096300
O	      8.48342      8.51002     10.56553        -0.030770      0.009268     -0.069019
