# total energy = -102.51788618 eV
 
CRYSTAL
PRIMVEC
3.988174 -0.000233 0.000133 
1.994839 4.526094 -6.608104 
1.994249 4.337509 2.077268 
PRIMCOORD
16 1
Li	      3.98716      0.22060     -0.04347         0.002118      0.029631     -0.001725
Li	      1.99295      1.97556     -0.00303         0.005166     -0.028145      0.001828
Li	      3.98711      2.07143     -1.90306         0.001677     -0.018818      0.013467
Li	      3.98819      4.65039     -4.75109        -0.001909      0.017070     -0.016870
Ti	      1.99480      4.31712     -2.17023        -0.001927     -0.214138      0.189135
Ti	      3.98829      6.74164     -2.40678        -0.000201      0.218549     -0.188277
Ni	      3.98794      4.22343      0.04094        -0.001809      0.140543     -0.035901
Ni	      5.98165      6.83607     -4.61803         0.002101     -0.140247      0.036821
O	      3.98785      4.60446     -2.16922        -0.000683      0.017524     -0.052642
O	      5.98188      6.45448     -2.40756        -0.000093     -0.022119      0.053175
O	      3.98696      2.22685      0.00994         0.003043     -0.135274     -0.162194
O	      5.98214      4.47927     -0.30070        -0.006162      0.002349     -0.270212
O	      1.99344      2.45559     -2.37910        -0.000695      0.243455     -0.014827
O	      1.99396      4.26591     -4.27485         0.000272     -0.238372      0.016832
O	      3.98761      6.58009     -4.27601        -0.001409     -0.006435      0.265709
O	      3.98740      4.30664      2.02098         0.000511      0.134428      0.165683
