# total energy = -244.62312260 eV
 
CRYSTAL
PRIMVEC
0.002511 6.479161 6.347617 
6.229175 0.014028 6.335752 
4.175227 4.334113 -0.012675 
PRIMCOORD
36 1
Li	      6.23650      0.12518      6.33304        -0.002602     -0.004462      0.045606
Li	      6.24940     10.78661      8.41678        -0.025672     -0.051487     -0.003180
Li	      6.28593      2.15847      4.31816         0.043746     -0.009708      0.038774
Li	      6.22134      2.31382      8.39741        -0.002955      0.086717      0.047061
Li	      6.18933      6.56277      4.29832        -0.029722     -0.028505      0.060761
Li	      6.23673      4.20372      6.42835        -0.002246     -0.030405      0.085499
Li	      6.22462      4.27338     10.47916        -0.040204      0.013200     -0.058843
Li	      4.13965      6.47748      6.30864        -0.007767     -0.012730     -0.014969
Li	      4.24111      4.26518      8.42688         0.097525     -0.004183     -0.045294
Sc	      8.31897      4.34288      4.29258        -0.001137     -0.085651      0.122213
Sc	      6.26177      6.40469      8.37260        -0.070417     -0.285363     -0.017843
Ti	      4.09794      2.19772      2.08770         0.100796      0.193391     -0.184618
Ti	      4.32463      4.39893      4.27465         0.268820      0.270278     -0.092464
Mn	      8.23156      2.15441      6.35316         0.017840     -0.122972     -0.133512
Mn	      8.29512      6.50816     10.55229         0.043713      0.111161      0.083102
Mn	      2.05402      4.32299      6.28389        -0.046811     -0.003718     -0.061608
Co	      8.27550      4.33339      8.43597         0.233761      0.002850      0.002103
Ni	      4.25956      2.19467      6.34113         0.003702      0.022877      0.034100
O	      2.13351      2.12978      1.99462         0.049689      0.318504      0.078518
O	      4.12606      4.15348      2.27439         0.248086     -0.296667      0.071906
O	      4.19204      2.21170      4.12891         0.005594     -0.016185     -0.042849
O	      6.19042      4.38647      4.18023        -0.261110     -0.021699      0.070917
O	      6.31752      2.15302      6.36127         0.093885     -0.008037      0.016471
O	      8.34190      4.47252      6.34686        -0.009781     -0.073745      0.087487
O	      2.14403      4.25860      4.30133         0.010050     -0.011601     -0.217838
O	      4.05867      6.30210      4.22837         0.032636     -0.256880     -0.021899
O	      4.23739      4.24529      6.19461        -0.028852      0.068945     -0.205614
O	      6.30999      6.68565      6.32526        -0.053792      0.084398     -0.073254
O	      6.24562      4.38344      8.45417        -0.439594      0.246511     -0.009788
O	      8.34186      6.53433      8.55514        -0.017494     -0.217255      0.027580
O	      2.05079      6.32788      6.18324         0.009532     -0.067647     -0.036251
O	      4.00001      8.62852      6.48089        -0.021592     -0.048773      0.140555
O	      4.16651      6.64733      8.54203        -0.039371      0.120590      0.023708
O	      6.11177      8.65457      8.24466        -0.120807      0.002542      0.039649
O	      6.30331      6.53249     10.49254        -0.001060      0.080406      0.080399
O	      8.32901      8.74245     10.71428        -0.036388      0.035304      0.063418
