# total energy = -244.90444963 eV
 
CRYSTAL
PRIMVEC
-0.006550 6.555393 6.230632 
6.408823 0.004261 6.221211 
4.285792 4.377527 -0.011366 
PRIMCOORD
36 1
Li	      2.13924      0.08509      2.05198        -0.037507     -0.019655     -0.056757
Li	     10.57756      6.70280      8.30649         0.037024      0.001357      0.037275
Li	      2.05962      2.26587      4.09019        -0.069391      0.068772      0.044999
Li	      8.53732      6.49857      6.35884        -0.066992     -0.040821      0.037270
Li	      6.40756      4.40096      6.31201         0.074766     -0.007880      0.083071
Li	      0.03426      4.29697      4.07834         0.100039     -0.023723     -0.059194
Li	      8.56162      6.57633     10.27253         0.003195     -0.050552      0.023863
Li	      4.51095      4.15497      8.31963         0.011738      0.047301     -0.024348
Li	      6.54277      6.43249      8.30224         0.069938     -0.090896      0.060210
Sc	      8.46495     10.88451     10.31632         0.124215     -0.096664      0.176375
Sc	      4.30954      4.45744      4.10175        -0.214254      0.104602     -0.125473
Ti	      6.46788      0.19857      6.20631        -0.034538      0.182598     -0.065701
Ti	      4.45962      6.49440      6.27448         0.144305     -0.066195     -0.176852
Mn	      4.20908      2.20937      2.05200         0.108671      0.006271     -0.133715
Mn	      6.41649      8.73911     10.26756         0.110943     -0.028980      0.065634
Mn	      2.15100      4.37052      6.24013         0.105319      0.045223     -0.180288
Co	      8.55236      2.19836      6.21890         0.030083      0.135683     -0.027770
Co	      8.36833      4.51500      8.33575         1.150140     -0.402915      0.028307
O	      2.30362      2.30380      2.04327        -0.290200      0.242243     -0.493860
O	      4.25076      4.41396      1.96856         0.017731      0.066649     -0.084571
O	      4.38316      2.20128      4.06860        -0.020717      0.026796     -0.087883
O	      6.41350      4.39300      4.16706         0.003645     -0.008029     -0.110186
O	      6.41435      2.06544      6.13280        -0.070855     -0.108569     -0.090365
O	      8.71452      4.37084      6.20124         0.114403     -0.255247     -0.155874
O	      2.23573      4.33816      4.15079         0.070614      0.000264      0.408451
O	      4.26163      6.50983      4.33959         0.059388     -0.022837      0.220799
O	      4.27242      4.55267      6.24552        -0.053926      0.065349     -0.049575
O	      6.28127      6.56637      6.25105        -0.248605      0.088009      0.060557
O	      6.54895      4.29254      8.29892        -0.684337      0.186560     -0.105520
O	      8.57103      6.42343      8.29500        -0.432553     -0.138312      0.069943
O	      1.99382      6.58084      6.24208        -0.079668      0.002505      0.058886
O	      4.25752      8.64533      6.27022         0.105043      0.069489      0.104045
O	      4.19052      6.57233      8.22109        -0.007688      0.055557     -0.042572
O	      6.19588      8.73304      8.30137        -0.073650      0.013416      0.032555
O	      6.31432      6.50764     10.52780         0.017026      0.040069      0.121693
O	      8.40754      8.80428     10.32704        -0.073344     -0.087436      0.436573
