# total energy = -182.42611990 eV
 
CRYSTAL
PRIMVEC
-0.008785 6.172469 6.190466 
6.178890 -0.041674 6.224271 
4.097094 4.114838 -0.005594 
PRIMCOORD
36 1
Li	      0.00387      6.12185      6.13020        -0.049955      0.027787     -0.032798
Li	      2.13022      8.14296      6.12934        -0.012279     -0.016750      0.033463
Li	      8.27401     10.17333     10.33584         0.034259     -0.007459      0.033475
Li	      4.06727      6.20506      2.16671        -0.025554      0.046524     -0.053869
Li	      2.03481      4.12708      2.09717        -0.009184     -0.003724     -0.015671
Li	      1.97994      2.13799      4.05178         0.008487     -0.003589     -0.012286
Li	      4.09646      8.19931      4.11094        -0.016460      0.056142     -0.069884
Li	      8.21205      6.16742     10.37858        -0.026321     -0.023480      0.012930
Li	      8.27437      8.15058      8.39967         0.045711     -0.005076     -0.000782
Fe	      6.19953      4.07214      6.26863         0.050703      0.053223      0.045551
Co	      8.21174      6.12447      6.23299        -0.003023     -0.222239      0.253914
Cu	      6.18326      8.16614     10.36766         0.158186     -0.072361      0.054566
Cu	      4.04794      4.12981      4.11264         0.062554     -0.006928     -0.024089
Ni	      2.06934      0.00078      2.09399         0.040136      0.031739     -0.011100
Ni	      4.07609      8.22751      8.22392        -0.055802     -0.001800     -0.035810
Ni	      2.01681      4.13799      6.12777         0.008883     -0.083204      0.051674
Ni	      4.05468      6.22719      6.13449         0.103609     -0.057616      0.073232
Ni	      6.17309      6.14298      8.29693        -0.018339     -0.084074     -0.006646
O	      6.17302      6.26543     10.25617         0.025908      0.034697      0.255465
O	      8.05942      8.19686     10.35087         0.012583      0.010126     -0.008229
O	      2.22563      1.95292      2.07578        -0.250270      0.122758      0.032475
O	      4.13244      3.95873      2.16078        -0.162758      0.165817      0.002370
O	      4.22987      2.09181      4.29869        -0.061842      0.056682      0.013901
O	      6.10729      3.98288      4.20207        -0.153266     -0.049669     -0.253946
O	      6.04258      2.05340      6.20328        -0.087980     -0.119472      0.102333
O	      8.14580      4.27936      6.17291         0.279146      0.172628     -0.048789
O	      2.12140      4.11168      4.16267         0.127473      0.038808     -0.262328
O	      4.10225      6.06988      4.15954        -0.004228     -0.101981     -0.151112
O	      4.12849      3.98980      6.15786        -0.096644     -0.055960      0.042852
O	      6.24233      6.14506      6.23410         0.124528     -0.025448     -0.233947
O	      6.15279      4.10603      8.15945        -0.039616     -0.047953      0.490020
O	      8.14161      6.17292      8.05128         0.175096      0.034681     -0.145721
O	      2.09064      6.09035      6.32240        -0.170935      0.214146     -0.118184
O	      4.14645      8.21549      6.17210        -0.165693      0.099236     -0.161574
O	      4.13687      6.31404      8.19880         0.005179     -0.145584      0.119107
O	      5.99843      8.25589      8.29620         0.147707     -0.030628      0.029436
