# total energy = -184.93193210 eV
 
CRYSTAL
PRIMVEC
-0.014520 6.208216 6.149677 
6.164799 -0.023979 6.158566 
4.094210 4.128595 0.000152 
PRIMCOORD
36 1
Li	      2.00616      0.05055      2.05505         0.015615      0.020930     -0.012594
Li	      4.04173      2.11921      2.09218         0.010493      0.004138      0.028470
Li	      8.14287      4.15091      4.09593        -0.041984      0.081496     -0.031223
Li	      0.07147      2.01737      2.06988         0.042804      0.027403     -0.026868
Li	      2.10922      4.02179      2.05737        -0.044798     -0.065399     -0.056828
Li	      2.03565      2.06585      4.07699         0.047823     -0.059963     -0.015574
Li	      6.15438      4.17068      6.08054         0.008321      0.023204     -0.025523
Li	      6.14508      8.17067      6.11865        -0.030096     -0.074714      0.065617
Li	      4.15631      6.18494      6.15137         0.035848     -0.009286      0.050849
Fe	      4.08711      4.16922      8.07826        -0.120004     -0.035263     -0.063887
Co	      2.04600      2.09399      0.04382        -0.065969      0.087377      0.259373
Co	      4.09552      8.20409      4.11800         0.378386      0.111031      0.072328
Cu	      6.14143      2.12874      4.10757         0.104175      0.072985     -0.149229
Ni	      4.09265      4.13961      0.06600        -0.000390      0.005088      0.032346
Ni	      4.10311      4.12967      4.06540        -0.076701     -0.014917      0.049054
Ni	      8.17246      6.15327      6.14113        -0.021056     -0.039899      0.037381
Ni	      2.07962      6.15832      4.11214        -0.032818      0.072558     -0.022786
Ni	      6.13705      6.17876      8.21390        -0.079319      0.056506     -0.100655
O	      6.25082      8.22649      8.30227         0.052516      0.015326      0.050008
O	      2.06591      2.05054      1.83931         0.022593      0.008545     -0.170081
O	      4.07791      4.13842      2.06199        -0.031038      0.049352      0.154469
O	      4.18836      2.08082      4.13671        -0.353914     -0.027764     -0.037240
O	      6.07990      4.08748      4.09566         0.033179      0.288003     -0.052417
O	      6.23779      2.04130      6.07369         0.204869     -0.181671      0.068689
O	      8.30634      3.99378      6.16352        -0.203738     -0.138251     -0.042533
O	      1.93552      4.13691      4.10581         0.481604     -0.017674     -0.031690
O	      4.08372      6.32094      4.12154         0.053598     -0.380079     -0.029493
O	      4.08099      4.09099      6.16173         0.026801      0.065389     -0.250058
O	      6.19329      6.15499      6.32528        -0.102639     -0.041902     -0.072692
O	      6.02803      4.14074      8.38826         0.129150     -0.331020     -0.458430
O	      8.14728      6.37653      8.21114         0.029774     -0.304069     -0.006357
O	      1.93125      6.39597      6.11523         0.190302      0.123316      0.125626
O	      3.96837      8.31273      6.01601        -0.030490     -0.154328      0.492229
O	      4.15654      5.99994      8.19552        -0.039877      0.420568      0.029272
O	      6.20440      6.05723     10.20383        -0.275151      0.227399      0.075100
O	      8.24279      8.22913     10.36475        -0.317870      0.115587      0.065346
