# total energy = -184.60064415 eV
 
CRYSTAL
PRIMVEC
0.006167 6.235907 5.971150 
6.270626 0.027085 5.949943 
4.202864 4.165754 -0.004677 
PRIMCOORD
36 1
Li	      4.20238      6.25834      9.91638        -0.106773      0.040730      0.016757
Li	      6.28646      8.31878      9.92869        -0.024844      0.079578     -0.022612
Li	      4.20354      6.25385      2.06805         0.003239     -0.036080      0.088058
Li	      6.26558      6.27924      3.97566        -0.061272     -0.107761      0.044890
Li	      4.16754      4.20041      3.99043         0.048193      0.033715     -0.081332
Li	      4.17981      8.26173      3.97037         0.070601     -0.049671     -0.005749
Li	      2.17530      6.26171      3.99694         0.089498     -0.010155     -0.041238
Li	      2.13444      4.12526      5.91060         0.016496     -0.044452     -0.057572
Li	      4.17889      6.26620      5.87827         0.004300      0.043208     -0.031822
Fe	      6.30592      6.26513     11.81221        -0.030298      0.051369      0.089511
Co	      6.31205      4.16297      2.07220        -0.030766     -0.009201     -0.488022
Co	      2.06577      4.17613      2.11296         0.030482      0.157718     -1.016272
Cu	      8.39131      8.33524     11.84492        -0.099534      0.048797     -0.034024
Cu	      4.20511      2.07716      2.02746         0.237108     -0.062711      0.205058
Cu	      4.17304      2.12869      5.89567        -0.001085     -0.200958      0.041218
Cu	      8.40571      8.32503      7.99500        -0.284005      0.247761      0.282101
Cu	      6.25294      6.27596      7.98174         0.101329     -0.009089      0.220951
Ni	      6.24421      4.18381      5.88332         0.160564     -0.065515     -0.129549
O	      4.14661      8.43129      5.99503        -0.146090     -0.279942     -0.044023
O	      4.16281      6.28654      7.94474        -0.256507      0.029182     -0.030517
O	      6.25642      8.32412      7.95388        -0.100126     -0.012394     -0.042631
O	      6.29036      6.25001      9.95364        -0.043877      0.036256     -0.672782
O	      8.40120      8.31809      9.91553        -0.000291      0.007214     -0.185668
O	      2.20208      2.09275      1.91168        -0.214592      0.787680      0.095874
O	      4.19910      4.07531      1.90347        -0.516178      0.087798      0.384918
O	      4.15356      2.11809      4.01002        -0.013810     -0.019942     -0.252957
O	      6.27935      4.19013      3.84716         0.009882     -0.023697      0.157604
O	      6.31450      2.06188      5.95806        -0.094315      0.070290      0.050197
O	      8.37892      4.21196      6.05627         0.048591      0.065992      0.334574
O	      2.09934      4.18253      3.83443         0.008417      0.009621      0.154269
O	      4.22121      6.23694      3.97981        -0.056419     -0.040604     -0.037741
O	      4.23931      4.08719      6.05136        -0.245470     -0.115222      0.120189
O	      6.31434      6.20684      6.04594         0.198372      0.316213      0.093539
O	      6.29893      4.26990      7.91863         0.976860     -0.060080      0.276665
O	      8.33234      6.23510      7.85210         0.149796     -0.956526      0.339643
O	      2.03044      6.27483      6.12175         0.172524     -0.009122      0.178496
