# total energy = -99.58344234 eV
 
CRYSTAL
PRIMVEC
0.000582 2.138429 2.136468 
6.837358 4.622778 -6.754051 
-4.305167 2.121213 -2.120310 
PRIMCOORD
16 1
Li	      0.30575      0.30375     -0.30892        -0.002084      0.010403     -0.010805
Li	     -2.35698      4.03762     -1.90624         0.000932     -0.013044      0.009688
Li	     -1.83233      2.39799     -0.26533        -0.005203      0.012819     -0.008315
Li	     -0.21922      1.94345     -1.94996         0.001975     -0.011102      0.014084
Ti	      2.55026      6.68010     -4.53762         0.500281      0.165715     -0.166439
Ti	      2.23465      4.43100     -2.28841        -0.496632     -0.154823      0.157698
Ni	      0.18429      4.48514     -4.47865        -0.026127     -0.041058      0.043121
Ni	      4.60056      4.48794     -4.48396         0.031507      0.041993     -0.044299
O	      0.24089      6.61633     -4.47321        -0.000916     -0.002427      0.002441
O	      0.44231      4.62150     -2.47678         0.515320     -0.119339      0.118785
O	      2.39278      4.48654     -4.48128        -0.003678     -0.003473      0.003485
O	      0.06688      2.19207     -0.06029        -0.007326     -0.001640      0.002353
O	      2.47888      2.54027     -2.53411        -0.106802      0.186330     -0.184421
O	      2.30646      6.43322     -6.42870         0.107846     -0.191465      0.188289
O	     -2.11836      2.14949     -2.15470         0.008161      0.003271     -0.003928
O	      4.34274      6.48988     -4.34882        -0.517254      0.117838     -0.121736
