# total energy = -197.38768192 eV
 
CRYSTAL
PRIMVEC
-0.019329 6.192427 6.180059 
6.101126 -0.028359 6.188843 
4.068225 4.135024 -0.019846 
PRIMCOORD
36 1
Li	      0.02203      6.17680      6.18460         0.012378     -0.155355     -0.225071
Li	      8.11202      8.19509     12.27330         0.053132      0.063371     -0.104940
Li	      4.01936      2.08174      2.03324         0.149898     -0.053287     -0.083710
Li	      6.15438      8.24769     10.32633         0.018882     -0.249463     -0.132498
Li	      4.08226      6.14441      2.08215        -0.106848      0.087240      0.033882
Li	      4.07174      4.16969      4.04906        -0.013302     -0.002572      0.045933
Li	      4.02419      8.21198      4.17199        -0.021226      0.169191      0.129190
Li	      2.09482      6.33618      4.21881        -0.128128      0.047081     -0.144244
Li	      4.00960      6.20333      6.08957         0.096686      0.093611      0.064982
Fe	      4.13227      2.02420      6.14946        -0.557867      0.140085      0.231179
Co	      4.06238      6.15625     10.27452         0.411039     -0.195412     -0.266250
Co	      2.13514      4.08514      2.09344        -0.062752      0.255812      0.092568
Co	      6.03880      6.19177      4.06126        -0.160170      0.011318      0.499153
Co	      5.94528      8.31143      6.14740         1.000970     -0.193598      0.300848
Co	      8.17453      8.23631      8.28055        -0.467625      0.116136      0.136921
Co	      6.09699      6.18860      8.34085        -0.124545      0.062719     -0.620877
Cu	      1.97117      0.05211      1.96711        -0.026613     -0.106257      0.041587
Cu	      6.04744      4.05484      6.13979         0.104818      0.533611      0.239113
O	      2.02287      6.14470      6.25074        -0.222713     -0.805452     -0.034567
O	      4.15141      8.23684      6.20880         0.115063      0.105860     -0.031835
O	      1.99651      2.14852      2.21705        -0.049637     -0.034314     -0.145105
O	      3.91801      4.13621      2.01812         0.029341      0.030479      0.030519
O	      3.93249      1.92950      4.14394        -0.166662      0.076414     -0.115041
O	      6.18068      4.24689      3.89453        -0.159924      0.147123      0.415368
O	      6.02692      2.11259      6.17268         0.397461     -0.041346      0.022173
O	      8.04232      4.13803      6.08399         0.023736     -0.144907      0.011567
O	      2.05956      3.91732      4.13610        -0.141420      0.010322      0.488245
O	      4.23053      6.14499      4.10382         0.221026     -0.022531     -0.089494
O	      4.02756      4.05102      6.32506        -0.119714     -0.022599      0.042832
O	      6.12350      6.13334      6.16621        -0.081519      0.328513     -0.313805
O	      6.07465      4.33193      8.29984         0.306145     -0.574879     -0.445878
O	      8.02682      6.23104      8.26999         0.064836     -0.152704     -0.143903
O	      4.16870      6.04399      8.36413        -0.171547     -0.189076      0.138753
O	      6.23819      8.09398      8.19431        -0.130870      0.551135     -0.622372
O	      5.96740      6.22665     10.16080        -0.119771      0.035745      0.653041
O	      8.13038      8.36522     10.18193         0.027441      0.077986     -0.098267
