# total energy = -198.30595261 eV
 
CRYSTAL
PRIMVEC
0.038566 6.177589 6.062806 
6.133194 0.050645 6.050863 
4.113373 4.134848 0.008973 
PRIMCOORD
36 1
Li	      0.15050      6.13580      6.07575        -0.009983     -0.036916      0.027666
Li	      2.06644      8.16253      6.01748         0.149920     -0.102864     -0.037573
Li	      8.27874     10.29171     10.09927        -0.009262     -0.032897     -0.029753
Li	      6.29668      8.22714     10.09965         0.025871      0.027373     -0.044543
Li	      4.13084      6.15910      2.02806        -0.011283     -0.031896      0.010793
Li	      4.11597      4.19501      4.05120         0.008174     -0.047546     -0.056239
Li	      2.03150      4.26314      6.10134        -0.006627      0.022519      0.004165
Li	      4.03936      6.21065      6.07046        -0.123381      0.150038      0.005009
Li	      4.09352      4.19461      8.08949         0.001418     -0.005970      0.062085
Fe	      4.18149      2.12313      5.98498        -0.049419      0.185535     -0.035474
Co	      4.13508      8.26137      8.04936         0.048443      0.042908      0.163267
Co	      8.18212      4.15402      8.05712        -0.272755     -0.040297     -0.174816
Co	      6.14053      6.22943      4.05815         0.090872     -0.298291      0.019303
Co	      6.14723      4.16945      6.00492         0.011079     -0.238351      0.792309
Co	      4.09490      8.24264      4.14593         0.233837      0.001239     -0.275733
Co	      6.14468      6.22588      8.08211        -0.062559     -0.149193     -0.095697
Ni	      2.08432      6.15189      8.03592        -0.026110      0.048453      0.633358
Ni	      2.10069      6.20431      4.11798         0.078450     -0.153960     -0.028955
O	      2.13863      2.12099      2.13645         0.065271      0.203132      0.038397
O	      4.00951      3.98553      2.04680        -0.082520     -0.190630     -0.054525
O	      3.96116      2.10484      3.99881        -0.108937     -0.005554      0.147627
O	      6.15874      4.30373      4.12705        -0.062957      0.254577     -0.975490
O	      6.11599      2.23919      6.03407         0.049376      0.064759     -0.034609
O	      8.08136      4.21155      6.13606         0.042307      0.184683      0.091274
O	      1.92497      4.04392      3.94298         0.007556      0.133945      0.026630
O	      4.19636      6.32867      4.02551         0.112030      0.103624      0.029162
O	      4.27627      4.10991      6.10099        -0.148216     -0.176498     -0.183616
O	      6.22599      6.11810      6.04629         0.011917     -0.069190     -0.005926
O	      6.24853      4.28810      7.95144         0.232768      0.105254      0.293352
O	      8.09696      6.08235      8.05745        -0.054243     -0.054811     -0.139865
O	      2.08220      6.18268      6.10335        -0.007524     -0.013464     -0.250677
O	      4.13345      8.27403      6.17208        -0.019841     -0.005235      0.146635
O	      4.20082      6.38232      8.10255         0.212586      0.146011     -0.098139
O	      6.05744      8.19129      8.11577        -0.093721     -0.126689      0.023994
O	      6.20096      6.08464      9.97991        -0.073230      0.004720     -0.073052
O	      8.40109      8.24588     10.04304        -0.159310      0.101483      0.079654
