# total energy = -177.94896008 eV
 
CRYSTAL
PRIMVEC
-0.007975 6.214771 6.090196 
6.221395 -0.041700 6.123882 
4.116833 4.135234 0.002749 
PRIMCOORD
36 1
Li	      6.21105     -0.00090      6.12845         0.010138     -0.001652     -0.040170
Li	      6.17510      2.07534      4.07992         0.007604     -0.005338      0.015764
Li	      4.15854      4.07180      4.16065         0.019274     -0.004084      0.081068
Li	      4.14561      2.11180      6.11594         0.014673      0.013791      0.042452
Li	      6.17647      4.08485      6.11883        -0.042441      0.010375      0.001543
Li	      6.26537      8.22199      6.15138         0.037588     -0.003858      0.018714
Li	      4.13702      6.14521      6.12767         0.017232     -0.021900      0.023934
Li	      4.08396      4.13609      8.05998        -0.036936     -0.040116     -0.025087
Li	      6.19730      6.22174      8.07411         0.018834     -0.001317     -0.057512
Fe	     10.31250      8.27537     10.21906         0.054571     -0.127745      0.156886
Cu	      8.28730      4.12162      8.13265         0.028611     -0.074783     -0.117187
Ni	      8.25325      2.01955      6.11840         0.052433     -0.099978     -0.076626
Ni	      2.08369      6.16205      8.10206         0.033241     -0.004778     -0.043527
Ni	      4.15200      8.27831      8.12793         0.023035     -0.120117     -0.102694
Ni	      4.14093     -0.01542      4.08687         0.047653     -0.092315      0.027405
Ni	      6.20996      2.01692      8.12725        -0.012578      0.018783      0.120110
Ni	      6.21633      6.17175      4.12995        -0.149908      0.003224     -0.097004
Ni	      8.25311      6.17862     10.20490        -0.023047      0.013066      0.049543
O	      8.33512      6.06541      8.18353         0.015230      0.544569     -0.075044
O	      2.11439      2.06740      2.13819        -0.053767     -0.143969     -0.044918
O	      4.08214      4.09287      2.06380        -0.264080     -0.000828     -0.038153
O	      4.06462      1.98718      4.04924         0.099028      0.115167      0.097707
O	      6.25696      4.15543      3.96592        -0.092710      0.032791      0.239913
O	      6.37256      2.01886      6.21037        -0.195162     -0.024441     -0.143298
O	      8.25967      3.92742      6.14477         0.034154      0.145631      0.244602
O	      2.00301      4.17430      4.01211         0.224710     -0.139547     -0.080982
O	      4.14801      6.33488      4.00440         0.062298     -0.315340      0.007695
O	      4.14338      4.12055      6.12389         0.027421      0.035393     -0.031166
O	      6.20701      6.18514      5.97089        -0.006414     -0.030853      0.334849
O	      6.32623      4.05454      8.26005         0.182941      0.008182     -0.373626
O	      2.04451      6.36428      6.12763        -0.043733     -0.062636     -0.119549
O	      3.97161      8.26764      6.03796         0.054883      0.034275      0.280785
O	      4.09289      6.30268      8.19162         0.042569     -0.001824     -0.234960
O	      6.06289      8.34118      8.10431         0.106799     -0.131911      0.003672
O	      6.18492      6.04173     10.16946        -0.037335      0.418713      0.031119
O	      8.31208      8.22860     10.15604        -0.256810      0.055373     -0.076260
