# total energy = -179.95113708 eV
 
CRYSTAL
PRIMVEC
-0.005270 6.204706 6.092682 
6.222662 -0.016760 6.104415 
4.131334 4.126996 0.006035 
PRIMCOORD
36 1
Li	      4.17013     10.27854      6.15353         0.044369     -0.148689      0.018691
Li	      2.09627      8.23193      6.10414         0.077832     -0.003872     -0.031305
Li	      2.04069      6.22128      8.00677         0.047002     -0.013549     -0.100898
Li	      2.06438      4.12893      2.03287         0.033896      0.020465     -0.061545
Li	      8.28156      6.21673      6.15049        -0.036007     -0.057933      0.026071
Li	      4.14660      8.23450      4.12111        -0.000994     -0.028369      0.143938
Li	      2.03345      4.18611      6.11383        -0.085443      0.113347      0.007797
Li	      4.10044      6.19741      6.11489        -0.062451      0.072477      0.083501
Li	      4.16367      4.09415      8.08349        -0.035668      0.025923      0.041213
Fe	      8.30293     10.22711     10.18736        -0.150146      0.124055     -0.492628
Cu	      6.22577      8.23833     10.18165         0.011098     -0.018658     -0.037035
Cu	      2.05585      2.11248      4.08625        -0.055777      0.122282     -0.048349
Cu	      4.11122      4.16283      4.07078        -0.014944     -0.229601     -0.138108
Cu	      6.18097      4.12143      6.10870         0.346309      0.071076      0.146131
Cu	      2.06396      6.18291      4.10727         0.053325      0.104166      0.043417
Cu	      6.23724      6.16883      8.09597        -0.023687     -0.005986     -0.011794
Ni	      4.11943      2.08595      2.01079        -0.155761     -0.067569     -0.180470
Ni	      6.25542      2.02791      8.07392        -0.211597      0.170942      0.093568
O	      2.06728      6.20682      5.93741        -0.019044     -0.025038      0.223984
O	      4.12131      8.26060      6.28082         0.065089     -0.030336     -0.375800
O	      4.20776      6.25512      8.26859        -0.152115      0.000397     -0.429869
O	      6.11683      8.16379      8.22135         0.142826      0.110350      0.115473
O	      6.11080      6.19144     10.17050         0.516781     -0.027009      0.022796
O	      8.24355      8.31009     10.15334        -0.086482     -0.628007     -0.035741
O	      2.08927      2.06279      2.13398        -0.007603      0.024095      0.023323
O	      4.14698      4.11507      2.09579         0.043829      0.082733      0.042644
O	      4.11113      2.08468      3.93345         0.103714     -0.008458      0.364440
O	      6.24548      4.13270      4.07765        -0.175880      0.024422      0.052225
O	      6.17099      2.15469      6.06164         0.029228      0.243357     -0.174915
O	      8.22233      4.15356      5.92094        -0.594080      0.097922      0.992163
O	      2.14017      4.12550      4.11876        -0.193890      0.144074     -0.006143
O	      4.18903      6.14396      4.00049        -0.083998      0.283515      0.032077
O	      4.23184      4.11810      6.00960         0.397494      0.001588      0.022845
O	      6.22580      6.10810      6.07323        -0.002516     -0.277643     -0.197150
O	      6.22364      4.16043      8.04828        -0.001923     -0.217563      0.003525
O	      8.24135      6.18357      8.32028         0.237216     -0.048905     -0.178073
