# total energy = -99.84648969 eV
 
CRYSTAL
PRIMVEC
-0.000009 2.174751 2.174197 
3.928268 0.000417 -0.000440 
0.000651 9.632147 -9.629992 
PRIMCOORD
16 1
Li	      0.00149      2.57463      1.76990         0.000507      0.031252     -0.038879
Li	      1.96604      2.63983     -0.46846        -0.000652      0.012673     -0.015551
Li	      0.00200      4.23271      0.11306        -0.000445     -0.016283      0.015824
Li	      1.96588      4.29534     -2.12553        -0.000131     -0.025453      0.031213
Ti	      0.00113      7.00065     -2.67250        -0.000084     -0.410767      0.370326
Ti	      1.96369      9.48489     -7.32887        -0.000257      0.362357     -0.399025
Ni	      1.96462      7.19947     -5.01728         0.000879      0.034128     -0.030619
Ni	      3.92830      7.14010     -7.13142        -0.001509     -0.026629      0.031598
O	      0.00056      7.14327     -4.91921        -0.000486     -0.059273      0.052940
O	      1.96404      7.23616     -7.18894         0.001331      0.050471     -0.057156
O	      0.00146      5.17513     -3.00709        -0.001059      0.332450     -0.285978
O	      1.96511      5.14966     -5.14064         0.000003     -0.087676      0.089148
O	      0.00161      2.19968     -0.02942        -0.000441     -0.027026      0.024068
O	      1.96589      4.67189     -0.32687         0.000176      0.020962     -0.024289
O	      3.92784      9.19179     -7.00825         0.001084      0.078724     -0.076382
O	      1.96354     11.32301     -6.97950         0.001083     -0.269911      0.312761
