# total energy = -221.16727204 eV
 
CRYSTAL
PRIMVEC
6.053833 -0.016488 -0.013739 
1.643447 7.728290 -0.018288 
1.416382 2.560439 7.313573 
PRIMCOORD
36 1
Li	      7.68345      9.22733      4.90552        -0.009020      0.003400      0.001012
Li	      3.12530      8.56381      2.56547         0.003654     -0.007046     -0.009972
Li	      4.54156      7.59131      7.17198        -0.002466     -0.005807      0.000147
Li	      6.06353      6.80321      4.90827        -0.000275      0.004582      0.010986
Li	      3.00696      6.98804      4.90279        -0.020238      0.016152     -0.003536
Li	      7.54861      6.02860      2.59668         0.004743      0.002338     -0.005884
Li	      3.04516      5.26397      7.14967         0.004222      0.003045      0.000177
Li	      1.54943      4.27944      4.77776         0.003143      0.003468     -0.004472
Li	      2.84230      1.72130      4.66686        -0.003177     -0.004180     -0.002031
Sc	      4.45876      2.62283      7.27548        -0.005880     -0.000850      0.002620
Sc	      4.49293      6.01527      2.50015         0.017085     -0.014320     -0.012172
Sc	      1.48842      2.54452      7.24968         0.006410     -0.003505      0.007061
Sc	      6.10393      3.37951      2.47654        -0.005592      0.013433      0.015466
Co	      7.67469      7.66047      7.20185         0.004242     -0.003104      0.002019
Co	      3.04877      3.40247      2.41630         0.019614      0.017525     -0.010585
Ni	      5.97790      5.17414      7.28241         0.001849     -0.016001      0.003268
Ni	      4.49260      4.28787      4.88589         0.009053      0.003740      0.017975
Ni	      4.53611      0.80190      2.61233        -0.001010      0.000049     -0.005574
O	      7.57661      7.80492      3.55752         0.004036     -0.001012      0.013472
O	      6.34430      8.45369      6.30491        -0.005653      0.003651     -0.014368
O	      3.05787      8.53088      6.12633        -0.010605      0.004515     -0.001810
O	      4.69342      7.75716      3.56671         0.003735      0.002177      0.006162
O	      3.21048      6.99268      1.15803        -0.005115      0.000176      0.001056
O	      6.15573      6.80015      1.16244        -0.000359     -0.000899      0.000865
O	      7.47912      6.07537      6.25970         0.004225      0.000402     -0.014511
O	      4.63871      5.89228      6.13510         0.004278     -0.015199     -0.012085
O	      3.02900      5.01857      3.54763        -0.006287     -0.006064      0.009675
O	      5.98628      5.08468      3.61267         0.002964     -0.004250     -0.010510
O	      4.42041      4.21636      1.31053        -0.003749      0.010354      0.016233
O	      1.36040      4.33430      1.11727         0.004782      0.003658      0.011778
O	      2.97827      3.38044      6.10690        -0.003011      0.000296     -0.001730
O	      5.99781      3.39884      6.09204        -0.001982      0.006247     -0.009159
O	      4.40954      2.60517      3.55495        -0.000402      0.004904      0.006651
O	      1.62925      2.64092      3.44627        -0.002393     -0.004127      0.016277
O	      5.81500      1.69500      1.19090        -0.015826     -0.010511     -0.014453
O	      3.16207      1.82421      1.23818         0.005007     -0.007237     -0.010048
