# total energy = -221.23110730 eV
 
CRYSTAL
PRIMVEC
6.011821 -0.009844 0.011072 
1.640506 7.745484 0.022752 
1.439907 2.600067 7.403579 
PRIMCOORD
36 1
Li	      7.63507      9.28293      5.08466        -0.010565      0.000326     -0.003413
Li	      3.08243      8.56476      2.50940         0.006286      0.009179     -0.009026
Li	      4.54043      7.77713      7.38804         0.001824      0.005814     -0.000892
Li	      6.08465      6.97628      4.94779         0.002720     -0.009639      0.004645
Li	      3.06775      7.01113      5.05583         0.007606      0.010919     -0.015647
Li	      7.58976      6.09437      2.56031         0.009820      0.000811     -0.003381
Li	      3.02693      5.24738      7.33110         0.000993      0.005723     -0.004803
Li	      1.51463      4.22892      4.87128        -0.002505     -0.007625      0.002395
Li	      2.80822      1.68480      4.81478         0.006240     -0.000557      0.002036
Sc	      4.50176      6.12512      2.46280         0.015670     -0.000425      0.003819
Sc	      5.97430      5.23195      7.35016         0.000132      0.000091      0.004631
Sc	      4.40373      4.28033      5.01003        -0.000127      0.001748      0.005474
Sc	      6.13740      3.42022      2.49347        -0.003750      0.004584     -0.007089
Co	      7.78327      7.86274      7.27857        -0.004285     -0.004566     -0.012509
Co	      2.99774      3.41385      2.46409        -0.008080     -0.004716     -0.009287
Ni	      6.04692     10.27850      7.39086        -0.002142     -0.002419      0.000432
Ni	      0.07005      0.02187      0.00729        -0.006365      0.007162      0.001059
Ni	      4.54117      0.83617      2.63870        -0.003883     -0.001568     -0.003094
O	      7.53693      7.83927      3.69371         0.002548     -0.002805     -0.002771
O	      6.31463      8.50978      6.41514         0.001880     -0.003012      0.005119
O	      3.09171      8.61262      6.25015        -0.011807     -0.003540      0.008637
O	      4.68203      7.78009      3.62692         0.002850     -0.002059      0.000060
O	      3.15532      6.94240      1.21001        -0.002851      0.001796     -0.004084
O	      6.11996      6.74452      1.16340         0.000341     -0.009629     -0.000565
O	      7.53915      6.24502      6.40803        -0.002259      0.008677      0.006729
O	      4.52254      5.95976      6.13725        -0.008809      0.000106      0.003035
O	      3.02479      5.01559      3.55302        -0.001861      0.004216     -0.002940
O	      5.92280      5.06023      3.69204        -0.003479     -0.005633      0.000127
O	      4.38698      4.20269      1.38490         0.006459     -0.004096      0.002438
O	      1.51775      4.26964      1.24061         0.001426      0.001371     -0.003602
O	      2.96715      3.43474      6.20079        -0.004724      0.006418      0.003220
O	      5.94094      3.46449      6.21707         0.005060     -0.002979      0.006793
O	      4.37752      2.62009      3.58726         0.005214      0.004250      0.010073
O	      1.67339      2.67673      3.54449         0.000366      0.003329      0.003533
O	      5.86656      1.66372      1.31669        -0.002093     -0.011450      0.003825
O	      3.08774      1.86796      1.37423         0.002149      0.000199      0.005020
