# total energy = -220.86694271 eV
 
CRYSTAL
PRIMVEC
6.095683 0.013057 -0.022697 
1.693323 7.695811 -0.058248 
1.429270 2.520506 7.289042 
PRIMCOORD
36 1
Li	      7.77664      9.16578      4.85562        -0.003389      0.021222     -0.011774
Li	      3.16982      8.49592      2.50710        -0.015568      0.002269     -0.007823
Li	      4.53593      7.61468      7.18021        -0.002817      0.004437     -0.018847
Li	      6.14513      6.82366      4.71022         0.003909      0.008244     -0.001390
Li	      3.18055      6.86478      4.89249        -0.025003     -0.008837     -0.010090
Li	      1.65890      6.04442      2.51571        -0.019020     -0.003604      0.008719
Li	      3.06373      5.22418      7.10344         0.007250      0.000078      0.024074
Li	      1.73068      4.24674      4.78516         0.006557     -0.003697      0.018517
Li	      2.83657      1.69871      4.68569         0.007660      0.006697      0.005851
Sc	      3.05309      0.01743      0.03807         0.005117     -0.007085     -0.015668
Sc	      5.99175      5.23350      7.14550         0.017387      0.006230      0.016371
Sc	      3.20981     10.20596      7.22012         0.009686     -0.018336      0.007942
Sc	      6.15036      3.38930      2.47879        -0.006219     -0.009644     -0.003719
Co	      7.80272      7.66043      7.12931         0.017526     -0.008692     -0.019762
Co	      3.06235      3.40044      2.42207         0.001788     -0.012749     -0.001909
Ni	      4.55852      5.97259      2.41468         0.005318      0.012314      0.008145
Ni	      4.48146      4.27327      4.83368        -0.001457     -0.001914      0.001666
Ni	      4.56099      0.78198      2.57975         0.000142      0.005671      0.007720
O	      7.64227      7.76922      3.51503        -0.014596     -0.008025      0.002224
O	      6.43257      8.39806      6.24429        -0.005808      0.003071     -0.001653
O	      3.13160      8.51050      6.06370        -0.000575      0.007530      0.000059
O	      4.76108      7.64367      3.41038        -0.002901     -0.004777     -0.011151
O	      3.27618      6.84900      1.16877        -0.002174      0.002300     -0.028422
O	      6.28800      6.75827      1.08922         0.001180     -0.005735     -0.016744
O	      7.62809      6.08133      6.13611         0.002600      0.001576      0.016813
O	      4.55258      5.93903      6.01052        -0.007019      0.004651      0.010593
O	      3.06593      4.97232      3.48878        -0.003225      0.000404      0.005656
O	      5.89004      5.14438      3.53973         0.008761     -0.006690      0.021629
O	      4.43604      4.25079      1.34004        -0.002024      0.008818      0.004856
O	      1.37511      4.29287      1.10903         0.000433     -0.014507      0.009600
O	      3.01531      3.32554      6.12113         0.006594      0.012450     -0.004108
O	      6.02703      3.39943      6.11300         0.013719      0.000796     -0.002834
O	      4.42640      2.58794      3.54055        -0.019465      0.002329     -0.005854
O	      1.63832      2.66247      3.48317         0.003638      0.006388      0.005188
O	      5.93216      1.68178      1.24421        -0.002352      0.002437     -0.000257
O	      3.15628      1.76979      1.24261         0.014349     -0.005619     -0.013616
