# total energy = -220.99433152 eV
 
CRYSTAL
PRIMVEC
6.019813 -0.029615 0.033412 
1.617373 7.743297 -0.053325 
1.460905 2.520083 7.343904 
PRIMCOORD
36 1
Li	      7.65847      9.20649      5.03628        -0.011492     -0.001718      0.008403
Li	      3.05303      8.52726      2.47775        -0.005431      0.003508      0.003712
Li	      4.44052      7.62769      7.31781         0.008044      0.006162      0.002740
Li	      6.08459      6.89736      4.85795         0.011605      0.007529      0.011805
Li	      3.12140      6.93453      5.09191        -0.000691      0.000800      0.005083
Li	      7.59006      6.02906      2.51851        -0.002573      0.007268      0.014256
Li	      3.06018      5.22312      7.17105         0.002196     -0.002989     -0.011038
Li	      1.62115      4.16054      4.81823         0.004745      0.002538     -0.012966
Li	      2.91867      1.73431      4.68655         0.010266      0.008361     -0.008379
Sc	      4.37166      2.51174      7.31678        -0.002771      0.008277      0.002606
Sc	      4.50992      6.05219      2.52165         0.012885      0.000088      0.017428
Sc	      5.99336      5.15662      7.16999        -0.000239     -0.001563     -0.007404
Sc	      6.12690      3.37463      2.47962        -0.004947     -0.003156      0.003910
Co	      7.63208      7.69185      7.27407         0.003764      0.002207      0.010773
Co	      3.00392      3.37758      2.39630        -0.003485      0.009426      0.001434
Ni	      4.47422      4.24356      4.88719         0.000479     -0.003532     -0.009763
Ni	      1.64798      7.73459     -0.02098        -0.000595     -0.000544     -0.002279
Ni	      4.57065      0.79798      2.62737         0.014223      0.000018     -0.012114
O	      7.53625      7.82019      3.62063         0.009393      0.002371      0.003074
O	      6.28633      8.43169      6.30518        -0.006709     -0.003407      0.007082
O	      2.95100      8.50293      6.28292        -0.014853     -0.009838      0.017690
O	      4.68167      7.77014      3.57196        -0.011394     -0.003938     -0.003486
O	      3.15300      6.91380      1.19848        -0.001993     -0.007867      0.012305
O	      6.08435      6.72358      1.15680         0.002810      0.000767      0.004557
O	      7.59411      6.15332      6.28212         0.002284     -0.001152      0.002998
O	      4.54289      5.92051      6.04873        -0.014400      0.001297      0.005721
O	      3.03659      4.90489      3.48431         0.007802      0.005860     -0.011472
O	      5.97032      5.04632      3.64501        -0.000553     -0.005191     -0.006000
O	      4.47989      4.21548      1.28617        -0.003875     -0.000708     -0.014789
O	      1.50959      4.24812      1.20282         0.002080     -0.003333     -0.008225
O	      2.98293      3.30041      6.10103        -0.020623      0.003547     -0.008165
O	      5.96910      3.35402      6.15289         0.006175     -0.020433      0.009868
O	      4.35749      2.61273      3.51787        -0.005339     -0.002732     -0.017631
O	      1.69811      2.62831      3.45597         0.019843     -0.004348     -0.008637
O	      5.86370      1.62260      1.29341        -0.016952      0.002143     -0.003180
O	      3.10145      1.81257      1.26861         0.010319      0.004280      0.000086
