# total energy = -221.12596848 eV
 
CRYSTAL
PRIMVEC
6.068961 -0.008471 0.009033 
1.657582 7.666865 -0.057816 
1.451370 2.498053 7.369747 
PRIMCOORD
36 1
Li	      7.69054      9.16516      4.93177        -0.005250      0.005247     -0.000904
Li	      3.13743      8.40643      2.51097         0.000468     -0.003810      0.005002
Li	      4.47647      7.60521      7.27386         0.001129     -0.001491      0.000562
Li	      6.17445      6.80108      4.78857        -0.006906     -0.004177     -0.003162
Li	      3.02173      6.89583      4.94002         0.000032     -0.007824      0.016310
Li	      1.66777      6.02857      2.45295         0.008126     -0.004549     -0.002884
Li	      3.03158      5.18209      7.21849        -0.006609     -0.008626     -0.000000
Li	      1.59312      4.15801      4.91040         0.001355      0.009834     -0.008972
Li	      2.79787      1.61852      4.83981        -0.008651     -0.005000     -0.008175
Sc	      4.64105      7.65574      0.03474        -0.006331     -0.003875     -0.013330
Sc	      6.04361      5.18274      7.27916         0.000308      0.000010     -0.006816
Sc	      4.44434      4.23940      4.90461         0.003512      0.001977     -0.000283
Sc	      6.17567      3.33084      2.48569         0.006145      0.000982      0.001749
Co	      7.76909      7.65838      7.21780        -0.002247     -0.002735     -0.004190
Co	      3.06617      3.32743      2.46586         0.004040      0.007538      0.002619
Ni	      4.56617      5.93845      2.43893        -0.009797      0.012397      0.003451
Ni	      0.03951      0.01375     -0.01942         0.007050      0.002140      0.001777
Ni	      4.63600      0.73637      2.62862         0.004943     -0.012230      0.005264
O	      7.64305      7.66641      3.60164        -0.003914      0.004801      0.002893
O	      6.37633      8.36791      6.33129         0.009778      0.004306      0.013695
O	      3.11144      8.52600      6.14874        -0.010128     -0.003250      0.001891
O	      4.76362      7.59619      3.44143         0.006710      0.009022      0.000915
O	      3.24290      6.78315      1.23415        -0.006620     -0.004982      0.014793
O	      6.22274      6.74157      1.11497        -0.001528     -0.011842      0.003322
O	      7.60518      6.04545      6.21256         0.000526     -0.008448     -0.000317
O	      4.56279      5.87922      6.09404        -0.006486     -0.012116      0.002818
O	      3.02413      4.92344      3.52830        -0.003922     -0.001317      0.001250
O	      5.89827      5.07134      3.58317         0.013237     -0.002807      0.002540
O	      4.42346      4.20488      1.38734         0.015198      0.008465     -0.003340
O	      1.32637      4.31175      1.04729         0.007117      0.000579     -0.004133
O	      3.03855      3.32296      6.17866        -0.001342      0.012546     -0.000134
O	      5.98660      3.41747      6.18157        -0.002874     -0.002280     -0.009229
O	      4.61543      2.48867      3.67821        -0.002753      0.005531     -0.010848
O	      1.67244      2.62019      3.51615        -0.000349     -0.002648     -0.009648
O	      5.93268      1.63112      1.26972        -0.001439      0.017216      0.000255
O	      3.13180      1.78508      1.28150        -0.002528      0.001418      0.005260
