# total energy = -228.30365534 eV
 
CRYSTAL
PRIMVEC
6.040410 -0.006912 0.015092 
1.447111 7.783190 0.067435 
1.561585 2.595773 7.346764 
PRIMCOORD
36 1
Li	      0.11722      0.14941      0.04738        -0.028158     -0.007440      0.000690
Li	      3.07603      0.02337      0.10513        -0.005801     -0.007069     -0.000993
Li	      3.05324      1.93809      4.85467         0.003174     -0.002605     -0.008209
Li	      5.97248      8.61366      2.46885         0.000585      0.007779      0.006947
Li	      6.03527      6.79889      5.01929        -0.011561     -0.002659      0.006126
Li	      7.44782      6.13152      2.42137         0.009392      0.005758      0.001990
Li	      5.96546      5.09853      7.24011        -0.010516      0.002928      0.003600
Li	      1.50347      2.52498      0.07502         0.006164     -0.007830     -0.008306
Li	      3.03947      3.38533      2.58446        -0.002187      0.003494     -0.001067
Sc	      5.97026      1.79739      4.89777         0.001277      0.006584      0.001622
Sc	      2.96340      5.19155      0.09810        -0.004461      0.001231      0.003668
Sc	      5.99110      5.12905      0.12429         0.004688     -0.009863      0.016672
Sc	      3.09114      6.87427      4.88562         0.003781     -0.006339     -0.008864
Co	      1.55188      0.81541      2.27476         0.019003      0.000512      0.009787
Co	      4.51799      6.04332      2.46294         0.006669     -0.010738     -0.009453
Co	      1.50512      4.35417      4.97704        -0.006160     -0.002883     -0.013734
Co	      4.53763      4.31770      4.94162         0.000875     -0.003141     -0.007183
Ni	      6.06155      3.39837      2.49387        -0.001558      0.018591      0.006790
O	      6.08023      8.56728      6.19954         0.010417      0.007740     -0.009007
O	      2.98114      8.58864      6.17849        -0.009140      0.001513     -0.010784
O	      7.77824      7.90352      3.63726         0.004752      0.005950     -0.003941
O	      4.41392      7.68256      3.47873        -0.001494      0.003562      0.010232
O	      2.95927      6.90707      1.26305         0.000342      0.015423      0.008162
O	      5.85772      6.77942      1.37972         0.003527     -0.001421     -0.001480
O	      7.57400      5.99384      6.04641        -0.012433      0.012038     -0.002584
O	      4.53385      6.13755      6.17070         0.000321     -0.016473     -0.002369
O	      3.28381      5.18365      3.69598         0.000356      0.015062      0.011072
O	      6.01281      5.04977      3.90924         0.003023      0.001775     -0.006819
O	      4.50554      4.37619      1.35474         0.011779      0.001956      0.001000
O	      1.45765      4.35754      1.24835        -0.004776     -0.005530     -0.010697
O	      3.02838      3.65986      5.91302         0.013689     -0.009228      0.010465
O	      5.89772      3.50729      6.12087        -0.007448     -0.009284      0.001618
O	      4.57209      2.58128      3.70336         0.006009      0.005250      0.010441
O	      1.50259      2.80591      3.84415         0.000103     -0.024480     -0.010445
O	      6.19573      1.65432      1.38111        -0.002302      0.008929      0.003226
O	      2.81109      1.62175      1.39429        -0.001925      0.000907      0.001827
