# total energy = -206.33790007 eV
 
CRYSTAL
PRIMVEC
5.913643 0.014141 -0.024062 
1.503991 7.621484 0.009959 
1.423515 2.463844 7.167266 
PRIMCOORD
36 1
Li	      3.00053      5.11789      0.02136        -0.006786      0.000232      0.009805
Li	      1.45028      0.83150      2.43356        -0.000273     -0.011908      0.000912
Li	      2.93915      3.36170      2.33742         0.002348     -0.002035      0.005100
Li	      1.51598      5.95993      2.38771         0.005672     -0.000229     -0.002471
Li	      4.35218      5.84473      2.51946        -0.004548     -0.008505     -0.000441
Li	      2.89979      1.54347      4.79011        -0.000709     -0.015135      0.023132
Li	      5.86718      1.61802      4.68023        -0.007581      0.001503     -0.002961
Li	      4.39523      4.21253      4.68798         0.002547     -0.006139     -0.004411
Li	      1.52216      2.56250      0.05929         0.009994      0.008747     -0.007756
Sc	      1.48595      4.16321      4.71581         0.003657      0.001037      0.003150
Co	      1.55746      7.59827     -0.00106         0.001487     -0.002829      0.005978
Co	      5.84198     10.02820      7.14071        -0.003670      0.005443      0.013137
Co	      4.36021      2.57292      0.00968         0.008402      0.024970     -0.014213
Co	      6.01248      5.09820      0.03118         0.001337      0.008079      0.007015
Co	      4.41315      0.83588      2.39913         0.008224      0.001941      0.010188
Co	      5.87731      3.37961      2.36881        -0.006051      0.005960     -0.003381
Co	      2.92392      6.79074      4.73004        -0.001844     -0.016120     -0.012582
Ni	      5.84475      6.75346      4.74105         0.011812     -0.001729      0.009827
O	      3.08168      1.54053      1.16301         0.006035      0.012483     -0.008357
O	      5.83865      1.86964      1.13410        -0.001281      0.011043      0.002813
O	      1.27330      4.22956      1.25675        -0.002989     -0.003592     -0.000271
O	      4.56443      4.17776      1.24267        -0.001903     -0.020009      0.001929
O	      6.05030      6.90200      1.11219         0.007596     -0.008342     -0.003581
O	      2.89177      6.88101      1.06139        -0.002460      0.008369     -0.005048
O	      1.35108      2.59831      3.41300        -0.003481      0.000550     -0.000558
O	      4.53232      2.49522      3.38408        -0.000712     -0.008211     -0.016260
O	      5.86059      4.92156      3.55102        -0.003066      0.000201     -0.007422
O	      2.93128      5.18886      3.70344        -0.018575      0.013770      0.017486
O	      4.33905      7.55607      3.67377        -0.007918      0.003392     -0.000133
O	      7.21023      7.63434      3.52305         0.011883      0.001161      0.004109
O	      6.00467      3.28084      6.08374        -0.002813      0.000697     -0.014112
O	      2.86310      3.19970      6.02540         0.004913     -0.001846      0.012759
O	      4.54664      5.79940      6.08085        -0.007063      0.006498     -0.006344
O	      7.40991      5.98003      5.88322        -0.002523      0.002756     -0.006005
O	      2.91189      8.27499      5.97054         0.004988     -0.007097     -0.010482
O	      5.99861      8.41745      6.13383        -0.004650     -0.005108     -0.000549
