# total energy = -232.53290438 eV
 
CRYSTAL
PRIMVEC
6.027986 -0.040426 0.035355 
1.428497 7.776857 0.022944 
1.549203 2.626660 7.386356 
PRIMCOORD
36 1
Li	      4.48552      9.39256      4.79366         0.000716      0.008351     -0.003069
Li	      1.57205      0.82455      2.42742        -0.000295     -0.003565     -0.005677
Li	      4.51961      7.68780      7.40514         0.003375      0.002770      0.004726
Li	      5.93365      6.96737      4.80913         0.000074      0.003023     -0.003297
Li	      3.13120      6.86651      5.07905         0.005937      0.009053      0.001883
Li	      1.42929      6.13566      2.74077         0.004990     -0.002426     -0.011635
Li	      4.38701      2.63299      0.08950        -0.000116     -0.002060     -0.000094
Li	      4.51125      4.48474      5.02855         0.004719     -0.002142      0.000127
Li	      2.95480      3.36739      2.45700         0.000227      0.003961     -0.002592
Sc	      0.06294     -0.00959      0.07868         0.010165     -0.002104     -0.004483
Sc	      3.01475      0.01962     -0.02972        -0.000631     -0.019800      0.004756
Sc	      6.10362      1.70157      4.82881        -0.007519      0.002849      0.006696
Sc	      7.52191      7.60450      7.36721        -0.010926     -0.004272      0.010862
Sc	      4.36330      5.94020      2.62237         0.002832     -0.008543     -0.010473
Co	      1.51058      4.42920      4.90243        -0.009051     -0.001886      0.008846
Co	      1.55872      2.60176      0.01444         0.000345      0.015281     -0.006116
Cu	      4.52246      0.87044      2.51942        -0.005193     -0.005882     -0.002954
Ni	      6.01972      3.44770      2.49715        -0.005688      0.001347     -0.000907
O	      6.10370      8.67179      6.20052         0.011431      0.003018     -0.002337
O	      2.92358      8.72058      6.18012        -0.011354      0.000237     -0.001817
O	      7.41354      7.85326      3.62693         0.002481      0.001800     -0.004407
O	      4.51236      7.79963      3.61478        -0.003453      0.002779     -0.001706
O	      3.00670      6.90363      1.19476         0.000968      0.001433     -0.003449
O	      5.92504      6.90780      1.24281         0.003506      0.007756      0.001117
O	      7.68315      5.86734      6.25219         0.004476     -0.002602      0.001005
O	      4.38116      5.97041      6.35612        -0.003259     -0.003909      0.006721
O	      2.87906      5.22987      3.81703         0.005496      0.004659      0.000759
O	      5.94200      5.18233      3.75265        -0.003118      0.001763      0.003851
O	      4.54168      4.34887      1.28747         0.007923     -0.001946     -0.000628
O	      1.44530      4.13232      1.10733         0.002695     -0.003103      0.001112
O	      3.05850      3.60607      6.30166        -0.006532     -0.002643     -0.001908
O	      6.16426      3.44379      6.13895         0.001139     -0.001967      0.010887
O	      4.55558      2.48560      3.61528         0.004153     -0.002296      0.001400
O	      1.50697      2.86953      3.79800        -0.000479     -0.000842     -0.001751
O	      6.08828      1.71245      1.24460        -0.003156      0.003186     -0.001450
O	      2.92095      1.74567      1.15632        -0.006881     -0.001280      0.006001
