# total energy = -103.68527795 eV
 
CRYSTAL
PRIMVEC
2.088259 4.182766 2.050422 
4.185364 -2.089171 -2.063796 
0.004366 4.200740 -4.140834 
PRIMCOORD
16 1
Li	      2.10996      8.34209     -2.10363        -0.002694      0.004001     -0.039707
Li	      2.14024      2.13988     -0.02244         0.003685      0.015230     -0.011762
Li	      4.12925      4.14041     -0.00250        -0.003132     -0.011352      0.010866
Li	      4.16695      2.14202     -2.06197        -0.000520     -0.004277      0.039928
Ti	      0.05156      2.02858     -1.97469         0.152328     -0.280052      0.135875
Ti	      4.13463      4.27331     -4.24139        -0.148352      0.277231     -0.136044
Ni	      2.09085      4.19596     -2.05999         0.031441     -0.016894      0.012094
Ni	      4.18408      6.28793     -2.10500        -0.033179      0.018611     -0.011501
O	      1.95196      2.16840     -2.08581        -0.192178     -0.128974      0.100328
O	      4.25473      4.22333     -2.16278         0.113100     -0.123626     -0.027866
O	      2.23413      4.13295     -4.12999         0.194032      0.128601     -0.099685
O	      4.15097      1.93818     -0.01987         0.001150     -0.275384     -0.112210
O	      4.18379      0.00570     -2.06934        -0.000157     -0.000362      0.000212
O	      2.11901      4.34549     -0.00455        -0.001612      0.273751      0.111764
O	      4.18589      2.10604     -4.13987         0.000334     -0.000020     -0.000498
O	      2.01980      6.26078     -2.00262        -0.114245      0.123517      0.028205
