# total energy = -238.81590166 eV
 
CRYSTAL
PRIMVEC
6.031839 0.047352 -0.126029 
1.603591 7.988506 0.119489 
1.411386 2.784687 7.424545 
PRIMCOORD
36 1
Li	      7.37011      2.90565      7.23094        -0.008945      0.006357     -0.001806
Li	      4.51412      9.67590      5.04549         0.002262     -0.024366     -0.001054
Li	      4.49587      8.00969      7.22132        -0.006170     -0.002298      0.005031
Li	      5.92451      7.16667      5.14154         0.011281     -0.002700     -0.002186
Li	      3.04104      7.15992      5.33133         0.013945      0.003882      0.009493
Li	      6.01314      5.56131      7.26929        -0.001069     -0.009035     -0.001831
Li	      3.06111      5.62233      7.19867        -0.007983      0.002994     -0.008041
Li	      4.48421      4.82963      5.15672         0.004132      0.000883     -0.000069
Li	      6.07045      3.60427      2.32226         0.004993      0.001197     -0.009195
Sc	      4.30120      2.87368      7.21823        -0.007139      0.005424      0.006020
Sc	      7.60296      9.87417      5.01800         0.005763      0.008364      0.002146
Sc	      1.43403      1.00250      2.43922         0.014799     -0.004197     -0.007924
Sc	      1.58453      6.21568      2.53857        -0.001632     -0.010637      0.000163
Sc	      4.64745      6.22791      2.60854        -0.005796      0.008241      0.011099
Sc	      3.09925      3.59200      2.36405        -0.002262     -0.010624      0.000386
Co	      4.49831      0.95598      2.36859        -0.029364     -0.001343     -0.003473
Cu	      7.46376      4.65429      5.03475        -0.007273      0.012685     -0.006496
Ni	      7.51434      8.00268      7.32812        -0.000199      0.003081      0.015316
O	      6.07452      9.11737      6.27339         0.014669     -0.011576     -0.001440
O	      2.91693      8.90225      6.28963        -0.014526      0.006678     -0.007964
O	      7.53139      8.16449      3.56379         0.007365     -0.012911     -0.003367
O	      4.72243      8.11179      3.59014        -0.004111     -0.006724     -0.003934
O	      3.12583      7.21087      1.42559         0.011306      0.003314     -0.003500
O	      6.04820      7.28166      1.36821         0.002133      0.007721      0.001146
O	      7.51678      6.33718      6.12000        -0.006033      0.006872     -0.001673
O	      4.52354      6.36872      6.21674         0.005363     -0.000613      0.007189
O	      3.10890      5.31576      3.61786        -0.000736     -0.008427      0.003588
O	      6.20377      5.43608      3.73496        -0.002127      0.002530     -0.000222
O	      4.61397      4.57568      1.33097        -0.005057     -0.005810      0.001699
O	      1.53490      4.51797      1.36050         0.009918      0.012051     -0.000406
O	      2.79630      3.75860      6.21187         0.004248      0.006928      0.008735
O	      5.83514      3.59222      6.03221         0.004112      0.002950     -0.005014
O	      4.48697      2.44921      3.45430         0.011796      0.004260      0.000410
O	      1.50360      2.65203      3.66539        -0.009916      0.007122      0.000820
O	      5.78241      1.68387      1.25658         0.010057     -0.000223     -0.002073
O	      3.04319      1.74903      1.26746        -0.017804     -0.002048     -0.001575
