# total energy = -227.22400704 eV
 
CRYSTAL
PRIMVEC
6.016752 -0.041623 0.042621 
1.347178 7.717989 -0.004571 
1.676654 2.521846 7.301814 
PRIMCOORD
36 1
Li	      3.00493     10.20957      7.21854        -0.002066      0.006123      0.001822
Li	      5.93942     10.15044      7.29375        -0.007851      0.004466      0.002548
Li	      7.50318      9.34406      5.03464        -0.002086      0.003247     -0.001204
Li	      2.98991      5.03282      0.00728        -0.000764      0.003687      0.005789
Li	      6.05109      6.84523      5.03847        -0.004270     -0.002115     -0.003707
Li	      4.35453      5.93212      2.27150        -0.002022      0.000990     -0.000728
Li	      4.44762      2.71807     -0.05860        -0.003733      0.001647     -0.001709
Li	      1.41657      2.67845      0.00316         0.000892      0.000857     -0.000620
Li	      5.92639      3.50007      2.28049        -0.004849     -0.002860     -0.003472
Sc	      4.70319      4.20522      4.90293         0.000072     -0.002369     -0.003783
Sc	      3.10767      6.82410      4.95410         0.001179     -0.002785      0.004796
Mn	      1.44093      5.94893      2.39369         0.002675     -0.006190     -0.005043
V	      4.48879      0.83987      2.30153        -0.003074      0.011306      0.008457
Cr	      4.55526      9.31898      4.96159         0.005773      0.002071     -0.000541
Fe	      1.58394      4.19780      4.94975         0.002851     -0.007066     -0.004189
Co	      7.46140      7.65108      7.30032        -0.004447      0.002548      0.003027
Cu	      1.52484      0.83776      2.46601         0.003054      0.000332      0.003665
Ni	      3.02466      3.45516      2.37140         0.001211      0.000460     -0.003492
O	      6.00928      8.56185      6.13063         0.001620      0.000378      0.001593
O	      3.03362      8.51543      6.06173        -0.006676      0.002005      0.002360
O	      7.51375      7.64877      3.52035         0.007315      0.008053      0.004901
O	      4.71148      7.72325      3.75472        -0.001091     -0.008627      0.001918
O	      2.78169      6.97187      1.38900         0.001602     -0.007279      0.001036
O	      5.83031      6.99973      1.40057         0.000728     -0.020962     -0.006438
O	      7.64394      5.87201      6.06409        -0.001684      0.005714      0.000067
O	      4.53758      5.88361      6.03074        -0.000476      0.007588     -0.005969
O	      3.07250      5.06120      3.70753         0.000607     -0.003844     -0.006107
O	      6.24135      4.98985      3.69030        -0.001027     -0.002838      0.002951
O	      4.44852      4.29936      1.20396         0.004365      0.000355     -0.006294
O	      1.45725      4.40433      1.25734         0.001915      0.001891     -0.000462
O	      3.10268      3.33255      5.98947        -0.001188      0.003296      0.001223
O	      6.17195      3.39456      6.03528         0.000986      0.002983      0.002044
O	      4.52481      2.38225      3.63203         0.005692     -0.000292      0.008139
O	      1.75708      2.39302      3.69163         0.000385     -0.006027     -0.004436
O	      5.71054      1.66227      1.36869         0.007656      0.002171     -0.003177
O	      2.97992      1.56259      1.43042        -0.003273      0.001087      0.005033
