# total energy = -226.73369376 eV
 
CRYSTAL
PRIMVEC
5.972994 -0.003298 0.003967 
1.386722 7.686851 -0.023024 
1.634082 2.510743 7.213400 
PRIMCOORD
36 1
Li	      5.92982      0.07019      0.02620        -0.009793     -0.004302      0.010984
Li	      4.35951      7.67228      0.03861         0.003244     -0.006576      0.008525
Li	      7.47330      9.33038      4.89820        -0.004902      0.000592      0.003911
Li	      2.99752      4.96339      0.00720        -0.019207      0.003254     -0.014627
Li	      6.03853      6.77006      4.90548        -0.009004      0.011800     -0.016726
Li	      4.35748      5.97766      2.21550         0.001182      0.018143      0.006496
Li	      4.47687      2.65580     -0.01204         0.003490     -0.016873      0.004520
Li	      3.07747      5.13623      7.19368         0.002580      0.007599     -0.004076
Li	      5.96005      3.44734      2.25031        -0.001803      0.018264     -0.006096
Sc	      4.64843      4.27011      4.81666         0.008719     -0.000547     -0.004389
Sc	      4.53152      9.23133      4.98926         0.015864     -0.010772     -0.003767
Mn	      1.44373      5.94684      2.31782         0.010934      0.019953      0.018232
V	      4.51101      0.84029      2.30387         0.008419      0.006126      0.000178
Cr	      3.02078      6.78331      4.80286         0.008100     -0.009862     -0.003915
Fe	      1.55367      4.16225      4.84024        -0.023090     -0.015310     -0.003036
Co	      7.45969      7.60723      7.16830        -0.004587     -0.022690      0.008781
Cu	      1.50993      0.87403      2.37811        -0.011460      0.005538      0.004116
Ni	      3.02458      3.43216      2.30393        -0.009388     -0.007867      0.000028
O	      6.06710      8.45854      6.09362         0.001026      0.009355      0.007865
O	      2.89864      8.38298      5.97979         0.005580      0.000527     -0.009043
O	      7.46432      7.59313      3.49300         0.005282      0.008420      0.009558
O	      4.46214      7.66855      3.60242         0.019072     -0.015054      0.012638
O	      2.78087      6.90402      1.29180         0.005431      0.014795      0.002807
O	      5.83145      6.96866      1.27772        -0.004326     -0.007042     -0.002053
O	      7.60283      5.99801      5.98316         0.001111     -0.008433     -0.006935
O	      4.45292      5.95824      5.88118        -0.013442     -0.006113      0.007956
O	      3.02526      5.07646      3.64424         0.001322     -0.002486     -0.012144
O	      6.17651      5.05113      3.61174         0.010683     -0.002712     -0.002750
O	      4.51640      4.31376      1.11993         0.000673     -0.005670     -0.003492
O	      1.38622      4.41533      1.15031         0.001614      0.009022     -0.017423
O	      3.06481      3.38542      5.93998         0.017297     -0.002971     -0.005479
O	      6.11803      3.44802      5.94710         0.002421      0.008161      0.005895
O	      4.49784      2.38579      3.56979         0.004074     -0.008502     -0.017034
O	      1.67174      2.51167      3.60996        -0.003306      0.007245      0.010258
O	      5.84366      1.64635      1.33189        -0.018886      0.005007      0.003623
O	      3.03318      1.65128      1.31097        -0.004926     -0.000018      0.006617
